xflr5 v6.50

 Calculated polar for: NACA 0012

 1 1 Reynolds number fixed          Mach number fixed         

 xtrf =   1.000 (top)        1.000 (bottom)
 Mach =   0.000     Re =     0.250 e 6     Ncrit =   9.000

  alpha     CL        CD       CDp       Cm    Top Xtr Bot Xtr   Cpmin    Chinge    XCp    
 ------- -------- --------- --------- -------- ------- ------- -------- --------- ---------
 -14.500  -0.6758   0.16266   0.15910   0.0236  1.0000  0.0531  -1.9388   0.0000   0.2699
 -14.000  -0.9500   0.07965   0.07577  -0.0221  1.0000  0.0325  -5.2546   0.0000   0.2094
 -13.500  -1.0223   0.06139   0.05696  -0.0340  1.0000  0.0318  -5.7034   0.0000   0.2005
 -13.000  -1.0605   0.05154   0.04664  -0.0368  1.0000  0.0321  -5.8264   0.0000   0.2001
 -12.500  -1.0824   0.04507   0.03972  -0.0350  1.0000  0.0329  -5.8105   0.0000   0.2034
 -12.000  -1.0917   0.04036   0.03457  -0.0304  1.0000  0.0340  -5.7042   0.0000   0.2086
 -11.500  -1.0851   0.03666   0.03040  -0.0257  1.0000  0.0353  -5.5368   0.0000   0.2135
 -11.000  -1.0633   0.03394   0.02726  -0.0221  1.0000  0.0364  -5.3182   0.0000   0.2170
 -10.500  -1.0408   0.02863   0.02162  -0.0191  1.0000  0.0391  -5.1485   0.0000   0.2201
 -10.000  -1.0062   0.02659   0.01945  -0.0166  1.0000  0.0423  -4.8426   0.0000   0.2226
  -9.500  -0.9681   0.02513   0.01775  -0.0142  1.0000  0.0465  -4.5265   0.0000   0.2250
  -9.000  -0.9327   0.02233   0.01481  -0.0115  1.0000  0.0514  -4.2541   0.0000   0.2278
  -8.500  -0.8929   0.02082   0.01319  -0.0091  1.0000  0.0570  -3.9420   0.0000   0.2306
  -8.000  -0.8567   0.01891   0.01124  -0.0060  1.0000  0.0640  -3.6556   0.0000   0.2343
  -7.500  -0.8165   0.01782   0.01006  -0.0033  1.0000  0.0733  -3.3427   0.0000   0.2377
  -7.000  -0.7783   0.01658   0.00880  -0.0003  1.0000  0.0869  -3.0405   0.0000   0.2419
  -6.500  -0.7419   0.01519   0.00752   0.0030  1.0000  0.1068  -2.8025   0.0000   0.2468
  -6.000  -0.7027   0.01417   0.00663   0.0058  1.0000  0.1371  -2.5579   0.0000   0.2515
  -5.500  -0.6638   0.01311   0.00587   0.0086  1.0000  0.1841  -2.3167   0.0000   0.2566
  -5.000  -0.6229   0.01229   0.00528   0.0110  1.0000  0.2442  -2.0709   0.0000   0.2618
  -4.500  -0.5809   0.01159   0.00489   0.0132  1.0000  0.3123  -1.8316   0.0000   0.2672
  -4.000  -0.5374   0.01104   0.00463   0.0151  1.0000  0.3806  -1.6299   0.0000   0.2729
  -3.500  -0.4919   0.01066   0.00451   0.0166  1.0000  0.4489  -1.4327   0.0000   0.2790
  -3.000  -0.4292   0.01029   0.00443   0.0146  0.9952  0.5230  -1.2162   0.0000   0.2795
  -2.500  -0.3475   0.00993   0.00437   0.0091  0.9831  0.6007  -1.0029   0.0000   0.2717
  -2.000  -0.2688   0.00956   0.00431   0.0046  0.9691  0.6721  -0.8255   0.0000   0.2627
  -1.500  -0.1905   0.00924   0.00420   0.0005  0.9546  0.7367  -0.6796   0.0000   0.2481
  -1.000  -0.1191   0.00893   0.00411  -0.0017  0.9361  0.7923  -0.5666   0.0000   0.2315
  -0.500  -0.0568   0.00872   0.00404  -0.0015  0.9107  0.8387  -0.4816   0.0000   0.2186
   0.000  -0.0000   0.00863   0.00398   0.0000  0.8792  0.8792  -0.4139   0.0000   0.5602
   0.500   0.0568   0.00872   0.00404   0.0015  0.8387  0.9107  -0.4816   0.0000   0.2186
   1.000   0.1191   0.00893   0.00411   0.0017  0.7923  0.9361  -0.5666   0.0000   0.2315
   1.500   0.1904   0.00924   0.00420  -0.0004  0.7367  0.9546  -0.6796   0.0000   0.2481
   2.000   0.2688   0.00956   0.00430  -0.0045  0.6721  0.9691  -0.8255   0.0000   0.2626
   2.500   0.3475   0.00993   0.00437  -0.0091  0.6007  0.9831  -1.0029   0.0000   0.2717
   3.000   0.4292   0.01029   0.00443  -0.0146  0.5230  0.9953  -1.2162   0.0000   0.2795
   3.500   0.4918   0.01066   0.00451  -0.0166  0.4490  1.0000  -1.4324   0.0000   0.2789
   4.000   0.5372   0.01103   0.00463  -0.0151  0.3807  1.0000  -1.6296   0.0000   0.2729
   4.500   0.5807   0.01159   0.00488  -0.0132  0.3124  1.0000  -1.8313   0.0000   0.2671
   5.000   0.6227   0.01228   0.00527  -0.0110  0.2442  1.0000  -2.0706   0.0000   0.2617
   5.500   0.6637   0.01311   0.00587  -0.0086  0.1841  1.0000  -2.3164   0.0000   0.2566
   6.000   0.7025   0.01416   0.00663  -0.0058  0.1371  1.0000  -2.5576   0.0000   0.2515
   6.500   0.7419   0.01518   0.00752  -0.0030  0.1068  1.0000  -2.8023   0.0000   0.2468
   7.000   0.7783   0.01658   0.00880   0.0003  0.0869  1.0000  -3.0402   0.0000   0.2419
   7.500   0.8164   0.01782   0.01006   0.0033  0.0733  1.0000  -3.3426   0.0000   0.2377
   8.000   0.8567   0.01890   0.01123   0.0060  0.0640  1.0000  -3.6556   0.0000   0.2343
   8.500   0.8930   0.02082   0.01319   0.0091  0.0569  1.0000  -3.9422   0.0000   0.2306
   9.000   0.9328   0.02233   0.01481   0.0115  0.0514  1.0000  -4.2544   0.0000   0.2279
   9.500   0.9682   0.02513   0.01774   0.0142  0.0465  1.0000  -4.5271   0.0000   0.2250
  10.000   1.0064   0.02659   0.01944   0.0165  0.0423  1.0000  -4.8434   0.0000   0.2226
  10.500   1.0411   0.02864   0.02162   0.0190  0.0391  1.0000  -5.1496   0.0000   0.2202
  11.000   1.0637   0.03394   0.02726   0.0220  0.0364  1.0000  -5.3195   0.0000   0.2171
  11.500   1.0856   0.03667   0.03041   0.0256  0.0353  1.0000  -5.5384   0.0000   0.2136
  12.000   1.0924   0.04037   0.03459   0.0303  0.0340  1.0000  -5.7070   0.0000   0.2088
  12.500   1.0833   0.04509   0.03975   0.0348  0.0329  1.0000  -5.8139   0.0000   0.2036
  13.000   1.0616   0.05158   0.04669   0.0366  0.0321  1.0000  -5.8305   0.0000   0.2003
  13.500   1.0236   0.06146   0.05704   0.0337  0.0318  1.0000  -5.7071   0.0000   0.2009
  14.000   0.9507   0.07997   0.07610   0.0215  0.0325  1.0000  -5.2497   0.0000   0.2100


