xflr5 v6.50

Plane name :        MXS
Polar name :        T1-15.0 m/s-VLM1
Freestream speed :  15.000 m/s


   alpha      Beta       CL          CDi        CDv        CD         CY         Cl         Cm         Cn        Cni       QInf        XCP
  -15.000     0.000  -1.130506   0.090352   0.061630   0.151982  -0.000000   0.000000   0.601187   0.000000   0.000000   15.0000     0.1335
  -14.900     0.000  -1.123452   0.089220   0.037955   0.127175  -0.000000   0.000000   0.595734   0.000000   0.000000   15.0000     0.1335
  -14.800     0.000  -1.116390   0.088094   0.034389   0.122483  -0.000000   0.000000   0.591857   0.000000   0.000000   15.0000     0.1335
  -14.700     0.000  -1.109318   0.086973   0.033769   0.120743  -0.000000   0.000000   0.588204   0.000000   0.000000   15.0000     0.1334
  -14.600     0.000  -1.102237   0.085859   0.033161   0.119020  -0.000000  -0.000000   0.584545   0.000000   0.000000   15.0000     0.1334
  -14.500     0.000  -1.095147   0.084750   0.032461   0.117212  -0.000000   0.000000   0.580872   0.000000   0.000000   15.0000     0.1334
  -14.400     0.000  -1.088047   0.083648   0.031767   0.115414  -0.000000   0.000000   0.577193   0.000000   0.000000   15.0000     0.1333
  -14.300     0.000  -1.080938   0.082551   0.031140   0.113691  -0.000000  -0.000000   0.573513   0.000000   0.000000   15.0000     0.1333
  -14.200     0.000  -1.073821   0.081460   0.030591   0.112052  -0.000000  -0.000000   0.569833   0.000000   0.000000   15.0000     0.1332
  -14.100     0.000  -1.066694   0.080375   0.030186   0.110561  -0.000000  -0.000000   0.566156   0.000000   0.000000   15.0000     0.1332
  -14.000     0.000  -1.059558   0.079297   0.029803   0.109100  -0.000000   0.000000   0.562474   0.000000   0.000000   15.0000     0.1332
  -13.900     0.000  -1.052413   0.078224   0.029436   0.107660  -0.000000  -0.000000   0.558786   0.000000   0.000000   15.0000     0.1331
  -13.800     0.000  -1.045260   0.077158   0.029115   0.106273  -0.000000   0.000000   0.555095   0.000000   0.000000   15.0000     0.1331
  -13.700     0.000  -1.038097   0.076097   0.028828   0.104925  -0.000000   0.000000   0.551399   0.000000   0.000000   15.0000     0.1331
  -13.600     0.000  -1.030926   0.075043   0.028562   0.103604  -0.000000   0.000000   0.547698   0.000000   0.000000   15.0000     0.1330
  -13.500     0.000  -1.023746   0.073995   0.028292   0.102287  -0.000000   0.000000   0.543991   0.000000   0.000000   15.0000     0.1330
  -13.400     0.000  -1.016558   0.072953   0.028022   0.100975  -0.000000  -0.000000   0.540276   0.000000   0.000000   15.0000     0.1330
  -13.300     0.000  -1.009361   0.071918   0.027746   0.099664  -0.000000  -0.000000   0.536555   0.000000   0.000000   15.0000     0.1329
  -13.200     0.000  -1.002155   0.070889   0.027454   0.098343  -0.000000   0.000000   0.532825   0.000000   0.000000   15.0000     0.1329
  -13.100     0.000  -0.994941   0.069866   0.027123   0.096989  -0.000000   0.000000   0.529087   0.000000   0.000000   15.0000     0.1329
  -13.000     0.000  -0.987719   0.068849   0.026774   0.095623  -0.000000  -0.000000   0.525341   0.000000   0.000000   15.0000     0.1328
  -12.900     0.000  -0.980488   0.067839   0.026433   0.094272  -0.000000   0.000000   0.521589   0.000000   0.000000   15.0000     0.1328
  -12.800     0.000  -0.973249   0.066836   0.026093   0.092929  -0.000000   0.000000   0.517831   0.000000   0.000000   15.0000     0.1328
  -12.700     0.000  -0.966001   0.065839   0.025783   0.091622  -0.000000  -0.000000   0.514068   0.000000   0.000000   15.0000     0.1327
  -12.600     0.000  -0.958746   0.064848   0.025502   0.090350  -0.000000   0.000000   0.510301   0.000000   0.000000   15.0000     0.1327
  -12.500     0.000  -0.951482   0.063864   0.025253   0.089117  -0.000000   0.000000   0.506530   0.000000   0.000000   15.0000     0.1327
  -12.400     0.000  -0.944210   0.062886   0.025010   0.087896  -0.000000  -0.000000   0.502753   0.000000   0.000000   15.0000     0.1327
  -12.300     0.000  -0.936930   0.061915   0.024762   0.086677  -0.000000  -0.000000   0.498970   0.000000   0.000000   15.0000     0.1326
  -12.200     0.000  -0.929643   0.060951   0.024514   0.085465  -0.000000   0.000000   0.495180   0.000000   0.000000   15.0000     0.1326
  -12.100     0.000  -0.922347   0.059993   0.024263   0.084256  -0.000000   0.000000   0.491384   0.000000   0.000000   15.0000     0.1326
  -12.000     0.000  -0.915043   0.059042   0.024000   0.083042  -0.000000   0.000000   0.487582   0.000000   0.000000   15.0000     0.1325
  -11.900     0.000  -0.907732   0.058098   0.023733   0.081831  -0.000000   0.000000   0.483772   0.000000   0.000000   15.0000     0.1325
  -11.800     0.000  -0.900413   0.057160   0.023470   0.080631  -0.000000   0.000000   0.479958   0.000000   0.000000   15.0000     0.1325
  -11.700     0.000  -0.893086   0.056229   0.023214   0.079444  -0.000000   0.000000   0.476138   0.000000   0.000000   15.0000     0.1324
  -11.600     0.000  -0.885752   0.055305   0.022970   0.078276  -0.000000   0.000000   0.472312   0.000000   0.000000   15.0000     0.1324
  -11.500     0.000  -0.878410   0.054388   0.022755   0.077143  -0.000000   0.000000   0.468483   0.000000   0.000000   15.0000     0.1324
  -11.400     0.000  -0.871061   0.053478   0.022557   0.076035  -0.000000   0.000000   0.464648   0.000000   0.000000   15.0000     0.1324
  -11.300     0.000  -0.863704   0.052574   0.022363   0.074937  -0.000000   0.000000   0.460808   0.000000   0.000000   15.0000     0.1323
  -11.200     0.000  -0.856340   0.051678   0.022170   0.073847  -0.000000   0.000000   0.456963   0.000000   0.000000   15.0000     0.1323
  -11.100     0.000  -0.848968   0.050788   0.021978   0.072765  -0.000000   0.000000   0.453111   0.000000   0.000000   15.0000     0.1323
  -11.000     0.000  -0.841589   0.049905   0.021786   0.071691  -0.000000   0.000000   0.449254   0.000000   0.000000   15.0000     0.1322
  -10.900     0.000  -0.834203   0.049029   0.021593   0.070623  -0.000000   0.000000   0.445392   0.000000   0.000000   15.0000     0.1322
  -10.800     0.000  -0.826810   0.048161   0.021400   0.069561  -0.000000  -0.000000   0.441524   0.000000   0.000000   15.0000     0.1322
  -10.700     0.000  -0.819410   0.047299   0.021210   0.068509  -0.000000  -0.000000   0.437650   0.000000   0.000000   15.0000     0.1322
  -10.600     0.000  -0.812003   0.046444   0.021022   0.067466  -0.000000   0.000000   0.433771   0.000000   0.000000   15.0000     0.1321
  -10.500     0.000  -0.804589   0.045597   0.020836   0.066432  -0.000000  -0.000000   0.429886   0.000000   0.000000   15.0000     0.1321
  -10.400     0.000  -0.797168   0.044756   0.020647   0.065403  -0.000000   0.000000   0.425997   0.000000   0.000000   15.0000     0.1321
  -10.300     0.000  -0.789740   0.043923   0.020455   0.064378  -0.000000  -0.000000   0.422101   0.000000   0.000000   15.0000     0.1321
  -10.200     0.000  -0.782305   0.043097   0.020264   0.063361  -0.000000  -0.000000   0.418200   0.000000   0.000000   15.0000     0.1320
  -10.100     0.000  -0.774864   0.042278   0.020076   0.062354  -0.000000   0.000000   0.414295   0.000000   0.000000   15.0000     0.1320
  -10.000     0.000  -0.767416   0.041466   0.019893   0.061359  -0.000000   0.000000   0.410384   0.000000   0.000000   15.0000     0.1320
   -9.900     0.000  -0.759961   0.040662   0.019718   0.060379  -0.000000   0.000000   0.406468   0.000000   0.000000   15.0000     0.1320
   -9.800     0.000  -0.752500   0.039864   0.019556   0.059420  -0.000000   0.000000   0.402548   0.000000   0.000000   15.0000     0.1319
   -9.700     0.000  -0.745032   0.039074   0.019394   0.058469  -0.000000   0.000000   0.398623   0.000000   0.000000   15.0000     0.1319
   -9.600     0.000  -0.737558   0.038292   0.019236   0.057528  -0.000000  -0.000000   0.394693   0.000000   0.000000   15.0000     0.1319
   -9.500     0.000  -0.730078   0.037516   0.019082   0.056598  -0.000000   0.000000   0.390758   0.000000   0.000000   15.0000     0.1319
   -9.400     0.000  -0.722591   0.036748   0.018934   0.055682  -0.000000   0.000000   0.386819   0.000000   0.000000   15.0000     0.1318
   -9.300     0.000  -0.715098   0.035988   0.018788   0.054776  -0.000000   0.000000   0.382874   0.000000   0.000000   15.0000     0.1318
   -9.200     0.000  -0.707599   0.035235   0.018644   0.053879  -0.000000   0.000000   0.378925   0.000000   0.000000   15.0000     0.1318
   -9.100     0.000  -0.700094   0.034489   0.018501   0.052990  -0.000000   0.000000   0.374971   0.000000   0.000000   15.0000     0.1318
   -9.000     0.000  -0.692583   0.033751   0.018362   0.052113  -0.000000   0.000000   0.371013   0.000000   0.000000   15.0000     0.1317
   -8.900     0.000  -0.685066   0.033020   0.018227   0.051247  -0.000000   0.000000   0.367050   0.000000   0.000000   15.0000     0.1317
   -8.800     0.000  -0.677543   0.032297   0.018100   0.050396  -0.000000   0.000000   0.363083   0.000000   0.000000   15.0000     0.1317
   -8.700     0.000  -0.670014   0.031581   0.017979   0.049560  -0.000000   0.000000   0.359111   0.000000   0.000000   15.0000     0.1317
   -8.600     0.000  -0.662479   0.030873   0.017864   0.048736  -0.000000   0.000000   0.355135   0.000000   0.000000   15.0000     0.1317
   -8.500     0.000  -0.654939   0.030172   0.017749   0.047921  -0.000000   0.000000   0.351154   0.000000   0.000000   15.0000     0.1316
   -8.400     0.000  -0.647393   0.029479   0.017639   0.047119  -0.000000   0.000000   0.347169   0.000000   0.000000   15.0000     0.1316
   -8.300     0.000  -0.639841   0.028794   0.017536   0.046330  -0.000000   0.000000   0.343180   0.000000   0.000000   15.0000     0.1316
   -8.200     0.000  -0.632284   0.028116   0.017439   0.045555  -0.000000   0.000000   0.339187   0.000000   0.000000   15.0000     0.1316
   -8.100     0.000  -0.624721   0.027446   0.017343   0.044789  -0.000000   0.000000   0.335189   0.000000   0.000000   15.0000     0.1316
   -8.000     0.000  -0.617153   0.026783   0.017252   0.044035  -0.000000   0.000000   0.331187   0.000000   0.000000   15.0000     0.1315
   -7.900     0.000  -0.609580   0.026128   0.017163   0.043291  -0.000000   0.000000   0.327181   0.000000   0.000000   15.0000     0.1315
   -7.800     0.000  -0.602001   0.025481   0.017078   0.042560  -0.000000   0.000000   0.323171   0.000000   0.000000   15.0000     0.1315
   -7.700     0.000  -0.594417   0.024842   0.017002   0.041844  -0.000000  -0.000000   0.319157   0.000000   0.000000   15.0000     0.1315
   -7.600     0.000  -0.586828   0.024210   0.016931   0.041141  -0.000000   0.000000   0.315139   0.000000   0.000000   15.0000     0.1315
   -7.500     0.000  -0.579234   0.023587   0.016860   0.040447  -0.000000   0.000000   0.311117   0.000000   0.000000   15.0000     0.1314
   -7.400     0.000  -0.571635   0.022970   0.016792   0.039763  -0.000000   0.000000   0.307091   0.000000   0.000000   15.0000     0.1314
   -7.300     0.000  -0.564031   0.022362   0.016726   0.039088  -0.000000   0.000000   0.303060   0.000000   0.000000   15.0000     0.1314
   -7.200     0.000  -0.556422   0.021762   0.016663   0.038424  -0.000000   0.000000   0.299026   0.000000   0.000000   15.0000     0.1314
   -7.100     0.000  -0.548808   0.021169   0.016605   0.037774  -0.000000   0.000000   0.294988   0.000000   0.000000   15.0000     0.1314
   -7.000     0.000  -0.541190   0.020584   0.016554   0.037138  -0.000000   0.000000   0.290947   0.000000   0.000000   15.0000     0.1313
   -6.900     0.000  -0.533566   0.020008   0.016502   0.036510  -0.000000   0.000000   0.286902   0.000000   0.000000   15.0000     0.1313
   -6.800     0.000  -0.525938   0.019439   0.016452   0.035891  -0.000000   0.000000   0.282852   0.000000   0.000000   15.0000     0.1313
   -6.700     0.000  -0.518306   0.018878   0.016404   0.035282  -0.000000  -0.000000   0.278799   0.000000   0.000000   15.0000     0.1313
   -6.600     0.000  -0.510669   0.018325   0.016360   0.034684  -0.000000  -0.000000   0.274743   0.000000   0.000000   15.0000     0.1313
   -6.500     0.000  -0.503028   0.017779   0.016320   0.034099  -0.000000   0.000000   0.270683   0.000000   0.000000   15.0000     0.1313
   -6.400     0.000  -0.495382   0.017242   0.016285   0.033528  -0.000000   0.000000   0.266619   0.000000   0.000000   15.0000     0.1312
   -6.300     0.000  -0.487732   0.016713   0.016252   0.032965  -0.000000  -0.000000   0.262552   0.000000   0.000000   15.0000     0.1312
   -6.200     0.000  -0.480077   0.016192   0.016218   0.032410  -0.000000   0.000000   0.258482   0.000000   0.000000   15.0000     0.1312
   -6.100     0.000  -0.472419   0.015679   0.016185   0.031864  -0.000000   0.000000   0.254408   0.000000   0.000000   15.0000     0.1312
   -6.000     0.000  -0.464756   0.015173   0.016152   0.031326  -0.000000   0.000000   0.250330   0.000000   0.000000   15.0000     0.1312
   -5.900     0.000  -0.457090   0.014676   0.016121   0.030797  -0.000000  -0.000000   0.246249   0.000000   0.000000   15.0000     0.1312
   -5.800     0.000  -0.449419   0.014187   0.016089   0.030277  -0.000000   0.000000   0.242165   0.000000   0.000000   15.0000     0.1312
   -5.700     0.000  -0.441745   0.013706   0.016058   0.029764  -0.000000   0.000000   0.238078   0.000000   0.000000   15.0000     0.1311
   -5.600     0.000  -0.434066   0.013233   0.016029   0.029262  -0.000000   0.000000   0.233987   0.000000   0.000000   15.0000     0.1311
   -5.500     0.000  -0.426384   0.012769   0.016001   0.028769  -0.000000   0.000000   0.229893   0.000000   0.000000   15.0000     0.1311
   -5.400     0.000  -0.418698   0.012312   0.015973   0.028285  -0.000000  -0.000000   0.225796   0.000000   0.000000   15.0000     0.1311
   -5.300     0.000  -0.411009   0.011863   0.015945   0.027809  -0.000000  -0.000000   0.221696   0.000000   0.000000   15.0000     0.1311
   -5.200     0.000  -0.403315   0.011423   0.015918   0.027341  -0.000000   0.000000   0.217593   0.000000   0.000000   15.0000     0.1311
   10.000     0.000   0.767415   0.041466   0.019888   0.061354   0.000000  -0.000000  -0.411995  -0.000000  -0.000000   15.0000     0.1320
   10.100     0.000   0.774863   0.042278   0.020071   0.062349   0.000000  -0.000000  -0.415987  -0.000000  -0.000000   15.0000     0.1320
   10.200     0.000   0.782304   0.043097   0.020259   0.063356   0.000000  -0.000000  -0.419975  -0.000000  -0.000000   15.0000     0.1320
   10.300     0.000   0.789739   0.043923   0.020450   0.064373   0.000000  -0.000000  -0.423959  -0.000000  -0.000000   15.0000     0.1321
   10.400     0.000   0.797167   0.044756   0.020642   0.065398   0.000000  -0.000000  -0.427938  -0.000000  -0.000000   15.0000     0.1321
   10.500     0.000   0.804588   0.045596   0.020830   0.066427   0.000000  -0.000000  -0.431912  -0.000000  -0.000000   15.0000     0.1321
   10.600     0.000   0.812002   0.046444   0.021017   0.067461   0.000000  -0.000000  -0.435882  -0.000000  -0.000000   15.0000     0.1321
   10.700     0.000   0.819409   0.047299   0.021204   0.068503   0.000000  -0.000000  -0.439847  -0.000000  -0.000000   15.0000     0.1322
   10.800     0.000   0.826809   0.048160   0.021394   0.069554   0.000000  -0.000000  -0.443807  -0.000000  -0.000000   15.0000     0.1322
   10.900     0.000   0.834203   0.049029   0.021587   0.070616   0.000000  -0.000000  -0.447763  -0.000000  -0.000000   15.0000     0.1322
   11.000     0.000   0.841588   0.049905   0.021780   0.071685   0.000000  -0.000000  -0.451714  -0.000000  -0.000000   15.0000     0.1322
   11.100     0.000   0.848967   0.050788   0.021971   0.072759   0.000000  -0.000000  -0.455660  -0.000000  -0.000000   15.0000     0.1323
   11.200     0.000   0.856339   0.051677   0.022163   0.073840   0.000000  -0.000000  -0.459601  -0.000000  -0.000000   15.0000     0.1323
   11.300     0.000   0.863703   0.052574   0.022356   0.074930   0.000000  -0.000000  -0.463537  -0.000000  -0.000000   15.0000     0.1323
   11.400     0.000   0.871060   0.053477   0.022550   0.076028   0.000000  -0.000000  -0.467468  -0.000000  -0.000000   15.0000     0.1324
   11.500     0.000   0.878409   0.054388   0.022748   0.077136   0.000000  -0.000000  -0.471394  -0.000000  -0.000000   15.0000     0.1324
   11.600     0.000   0.885751   0.055305   0.022961   0.078266   0.000000  -0.000000  -0.475316  -0.000000  -0.000000   15.0000     0.1324
   11.700     0.000   0.893085   0.056229   0.023204   0.079433   0.000000  -0.000000  -0.479235  -0.000000  -0.000000   15.0000     0.1324
   11.800     0.000   0.900412   0.057160   0.023459   0.080619   0.000000  -0.000000  -0.483150  -0.000000  -0.000000   15.0000     0.1325
   11.900     0.000   0.907731   0.058098   0.023721   0.081818   0.000000  -0.000000  -0.487060  -0.000000  -0.000000   15.0000     0.1325
   12.000     0.000   0.915042   0.059042   0.023988   0.083030   0.000000  -0.000000  -0.490964  -0.000000  -0.000000   15.0000     0.1325
   12.100     0.000   0.922346   0.059993   0.024252   0.084245   0.000000  -0.000000  -0.494864  -0.000000  -0.000000   15.0000     0.1326
   12.200     0.000   0.929642   0.060951   0.024503   0.085454   0.000000  -0.000000  -0.498757  -0.000000  -0.000000   15.0000     0.1326
   12.300     0.000   0.936929   0.061915   0.024751   0.086666   0.000000  -0.000000  -0.502645  -0.000000  -0.000000   15.0000     0.1326
   12.400     0.000   0.944209   0.062886   0.024998   0.087884   0.000000  -0.000000  -0.506527  -0.000000  -0.000000   15.0000     0.1327
   12.500     0.000   0.951481   0.063864   0.025241   0.089105   0.000000  -0.000000  -0.510403  -0.000000  -0.000000   15.0000     0.1327
   12.600     0.000   0.958745   0.064848   0.025490   0.090337   0.000000  -0.000000  -0.514275  -0.000000  -0.000000   15.0000     0.1327
   12.700     0.000   0.966000   0.065838   0.025765   0.091604   0.000000  -0.000000  -0.518142  -0.000000  -0.000000   15.0000     0.1327
   12.800     0.000   0.973248   0.066836   0.026073   0.092909   0.000000  -0.000000  -0.522006  -0.000000  -0.000000   15.0000     0.1328
   12.900     0.000   0.980487   0.067839   0.026412   0.094251   0.000000  -0.000000  -0.525867  -0.000000  -0.000000   15.0000     0.1328
   13.000     0.000   0.987718   0.068849   0.026752   0.095601   0.000000  -0.000000  -0.529722  -0.000000  -0.000000   15.0000     0.1328
   13.100     0.000   0.994940   0.069866   0.027100   0.096966   0.000000  -0.000000  -0.533572  -0.000000  -0.000000   15.0000     0.1329
   13.200     0.000   1.002154   0.070888   0.027436   0.098325   0.000000  -0.000000  -0.537415  -0.000000  -0.000000   15.0000     0.1329
   13.300     0.000   1.009360   0.071918   0.027729   0.099646   0.000000  -0.000000  -0.541250  -0.000000  -0.000000   15.0000     0.1329
   13.400     0.000   1.016557   0.072953   0.028005   0.100958   0.000000  -0.000000  -0.545078  -0.000000  -0.000000   15.0000     0.1330
   13.500     0.000   1.023745   0.073995   0.028275   0.102269   0.000000  -0.000000  -0.548899  -0.000000  -0.000000   15.0000     0.1330
   13.600     0.000   1.030925   0.075043   0.028544   0.103586   0.000000  -0.000000  -0.552714  -0.000000  -0.000000   15.0000     0.1330
   13.700     0.000   1.038096   0.076097   0.028809   0.104906   0.000000  -0.000000  -0.556523  -0.000000  -0.000000   15.0000     0.1331
   13.800     0.000   1.045259   0.077157   0.029092   0.106249   0.000000  -0.000000  -0.560327  -0.000000  -0.000000   15.0000     0.1331
   13.900     0.000   1.052412   0.078224   0.029410   0.107633   0.000000  -0.000000  -0.564128  -0.000000  -0.000000   15.0000     0.1331
   14.000     0.000   1.059557   0.079296   0.029774   0.109070   0.000000  -0.000000  -0.567926  -0.000000  -0.000000   15.0000     0.1332
   14.100     0.000   1.066693   0.080375   0.030157   0.110532   0.000000  -0.000000  -0.571720  -0.000000  -0.000000   15.0000     0.1332
   14.200     0.000   1.073819   0.081460   0.030560   0.112019   0.000000  -0.000000  -0.575508  -0.000000  -0.000000   15.0000     0.1332
   14.300     0.000   1.080937   0.082551   0.031077   0.113628   0.000000  -0.000000  -0.579299  -0.000000  -0.000000   15.0000     0.1333
   14.400     0.000   1.088046   0.083647   0.031702   0.115349   0.000000  -0.000000  -0.583093  -0.000000  -0.000000   15.0000     0.1333
   14.500     0.000   1.095145   0.084750   0.032386   0.117136   0.000000  -0.000000  -0.586884  -0.000000  -0.000000   15.0000     0.1334
   14.600     0.000   1.102236   0.085859   0.033096   0.118954   0.000000  -0.000000  -0.590672  -0.000000  -0.000000   15.0000     0.1334
   14.700     0.000   1.109317   0.086973   0.033706   0.120679   0.000000  -0.000000  -0.594447  -0.000000  -0.000000   15.0000     0.1334
   14.800     0.000   1.116389   0.088093   0.034322   0.122416   0.000000  -0.000000  -0.598215  -0.000000  -0.000000   15.0000     0.1335
   14.900     0.000   1.123451   0.089220   0.034972   0.124191   0.000000  -0.000000  -0.601981  -0.000000  -0.000000   15.0000     0.1335
   15.000     0.000   1.130504   0.090351   0.060665   0.151016   0.000000  -0.000000  -0.607709  -0.000000  -0.000000   15.0000     0.1335
   15.100     0.000   1.137548   0.091489   0.107461   0.198950   0.000000  -0.000000  -0.615130  -0.000000  -0.000000   15.0000     0.1336
   15.200     0.000   1.144582   0.092632   0.114200   0.206833   0.000000  -0.000000  -0.619395  -0.000000  -0.000000   15.0000     0.1336
   15.300     0.000   1.151606   0.093781   0.158443   0.252224   0.000000  -0.000000  -0.626675  -0.000000  -0.000000   15.0000     0.1336
   15.400     0.000   1.158621   0.094936   0.168291   0.263227   0.000000  -0.000000  -0.631219  -0.000000  -0.000000   15.0000     0.1337
   15.500     0.000   1.165626   0.096096   0.213858   0.309954   0.000000  -0.000000  -0.638653  -0.000000  -0.000000   15.0000     0.1337
   15.600     0.000   1.172622   0.097262   0.216164   0.313426   0.000000  -0.000000  -0.642599  -0.000000  -0.000000   15.0000     0.1338
   15.700     0.000   1.179608   0.098434   0.247321   0.345754   0.000000  -0.000000  -0.648884  -0.000000  -0.000000   15.0000     0.1338
   15.800     0.000   1.186584   0.099610   0.259651   0.359261   0.000000  -0.000000  -0.653674  -0.000000  -0.000000   15.0000     0.1338
   15.900     0.000   1.193550   0.100793   0.262300   0.363092   0.000000  -0.000000  -0.657653  -0.000000  -0.000000   15.0000     0.1339
   16.000     0.000   1.200506   0.101980   0.282414   0.384395   0.000000  -0.000000  -0.663096  -0.000000  -0.000000   15.0000     0.1339
   16.100     0.000   1.207452   0.103173   0.302973   0.406147   0.000000  -0.000000  -0.668560  -0.000000  -0.000000   15.0000     0.1340
   16.200     0.000   1.214388   0.104372   0.306068   0.410439   0.000000  -0.000000  -0.672581  -0.000000  -0.000000   15.0000     0.1340
   16.300     0.000   1.221314   0.105576   0.312947   0.418522   0.000000  -0.000000  -0.676926  -0.000000  -0.000000   15.0000     0.1340
   16.400     0.000   1.228230   0.106785   0.342777   0.449562   0.000000  -0.000000  -0.683217  -0.000000  -0.000000   15.0000     0.1341
   16.500     0.000   1.235136   0.107999   0.346284   0.454283   0.000000  -0.000000  -0.687276  -0.000000  -0.000000   15.0000     0.1341
   16.600     0.000   1.242031   0.109218   0.357578   0.466796   0.000000  -0.000000  -0.692017  -0.000000  -0.000000   15.0000     0.1342
   16.700     0.000   1.248916   0.110443   0.361790   0.472232   0.000000  -0.000000  -0.696134  -0.000000  -0.000000   15.0000     0.1342
   16.800     0.000   1.255791   0.111673   0.366292   0.477964   0.000000  -0.000000  -0.700272  -0.000000  -0.000000   15.0000     0.1342
   16.900     0.000   1.262655   0.112907   0.370586   0.483493   0.000000  -0.000000  -0.704389  -0.000000  -0.000000   15.0000     0.1343
   17.000     0.000   1.269510   0.114147   0.375082   0.489229   0.000000  -0.000000  -0.708520  -0.000000  -0.000000   15.0000     0.1343
   17.100     0.000   1.276353   0.115392   0.379475   0.494867   0.000000  -0.000000  -0.712639  -0.000000  -0.000000   15.0000     0.1344
   17.200     0.000   1.283186   0.116642   0.391029   0.507671   0.000000  -0.000000  -0.717409  -0.000000  -0.000000   15.0000     0.1344
   17.300     0.000   1.290009   0.117897   0.400405   0.518302   0.000000  -0.000000  -0.721983  -0.000000  -0.000000   15.0000     0.1345
   17.400     0.000   1.296820   0.119156   0.405091   0.524248   0.000000  -0.000000  -0.726124  -0.000000  -0.000000   15.0000     0.1345
   17.500     0.000   1.303622   0.120421   0.414725   0.535146   0.000000  -0.000000  -0.730723  -0.000000  -0.000000   15.0000     0.1345
   17.600     0.000   1.310412   0.121690   0.419762   0.541452   0.000000  -0.000000  -0.734892  -0.000000  -0.000000   15.0000     0.1346
   17.700     0.000   1.317192   0.122964   0.424761   0.547726   0.000000  -0.000000  -0.739055  -0.000000  -0.000000   15.0000     0.1346
   17.800     0.000   1.323961   0.124243   0.430153   0.554396   0.000000  -0.000000  -0.743252  -0.000000  -0.000000   15.0000     0.1347
   17.900     0.000   1.330719   0.125527   0.435691   0.561217   0.000000  -0.000000  -0.747459  -0.000000  -0.000000   15.0000     0.1347
   18.000     0.000   1.337466   0.126815   0.441733   0.568547   0.000000  -0.000000  -0.751711  -0.000000  -0.000000   15.0000     0.1348


