xflr5 v6.50

 Calculated polar for: NACA 0012

 1 1 Reynolds number fixed          Mach number fixed         

 xtrf =   1.000 (top)        1.000 (bottom)
 Mach =   0.000     Re =     0.250 e 6     Ncrit =   9.000

  alpha     CL        CD       CDp       Cm    Top Xtr Bot Xtr   Cpmin    Chinge    XCp    
 ------- -------- --------- --------- -------- ------- ------- -------- --------- ---------
 -36.000  -1.2108   0.46735   0.46439   0.2164  1.0000  0.0069  -2.2277   0.0000   0.3643
 -35.500  -1.2041   0.45579   0.45280   0.2137  1.0000  0.0072  -2.1225   0.0000   0.3649
 -35.000  -1.1961   0.44963   0.44661   0.2090  1.0000  0.0075  -2.0482   0.0000   0.3643
 -34.500  -1.1873   0.44364   0.44060   0.2040  1.0000  0.0079  -1.9977   0.0000   0.3634
 -34.000  -1.1777   0.43743   0.43436   0.1989  1.0000  0.0085  -1.9676   0.0000   0.3623
 -30.000  -1.0858   0.38266   0.37940   0.1551  1.0000  0.0123  -2.0875   0.0000   0.3486
 -29.500  -1.0737   0.37417   0.37088   0.1520  1.0000  0.0127  -1.9519   0.0000   0.3488
 -29.000  -1.0613   0.36780   0.36449   0.1478  1.0000  0.0130  -1.8450   0.0000   0.3480
 -28.500  -1.0484   0.36159   0.35825   0.1433  1.0000  0.0135  -1.7849   0.0000   0.3468
 -28.000  -1.0351   0.35527   0.35191   0.1386  1.0000  0.0141  -1.7540   0.0000   0.3455
 -27.500  -1.0214   0.34877   0.34538   0.1339  1.0000  0.0148  -1.7371   0.0000   0.3440
 -27.000  -1.0074   0.34209   0.33868   0.1292  1.0000  0.0158  -1.7346   0.0000   0.3423
 -26.500  -0.9929   0.33513   0.33170   0.1243  1.0000  0.0173  -1.7601   0.0000   0.3404
 -26.000  -0.9778   0.32867   0.32524   0.1176  1.0000  0.0185  -1.9110   0.0000   0.3365
 -25.500  -0.9653   0.32351   0.32008   0.1107  1.0000  0.0187  -2.0736   0.0000   0.3319
 -25.000  -0.9529   0.31410   0.31068   0.1057  1.0000  0.0190  -2.2087   0.0000   0.3291
 -24.500  -0.9359   0.30546   0.30201   0.1045  1.0000  0.0198  -2.0205   0.0000   0.3310
 -24.000  -0.9203   0.29976   0.29627   0.1009  1.0000  0.0209  -1.9205   0.0000   0.3302
 -23.500  -0.9048   0.29375   0.29024   0.0967  1.0000  0.0222  -1.8596   0.0000   0.3285
 -23.000  -0.8891   0.28744   0.28392   0.0921  1.0000  0.0247  -1.8221   0.0000   0.3263
 -22.500  -0.8751   0.28199   0.27847   0.0847  1.0000  0.0266  -1.9259   0.0000   0.3202
 -22.000  -0.8629   0.27681   0.27329   0.0784  1.0000  0.0268  -1.9733   0.0000   0.3152
 -21.500  -0.8490   0.27056   0.26704   0.0731  1.0000  0.0269  -1.9797   0.0000   0.3113
 -21.000  -0.8354   0.26014   0.25664   0.0694  1.0000  0.0273  -1.9759   0.0000   0.3090
 -20.500  -0.8150   0.25283   0.24928   0.0684  1.0000  0.0281  -1.8076   0.0000   0.3108
 -20.000  -0.7977   0.24703   0.24346   0.0655  1.0000  0.0292  -1.7331   0.0000   0.3100
 -19.500  -0.7820   0.24061   0.23704   0.0620  1.0000  0.0309  -1.7083   0.0000   0.3080
 -19.000  -0.7677   0.23340   0.22982   0.0578  1.0000  0.0337  -1.7442   0.0000   0.3047
 -18.500  -0.7660   0.22549   0.22194   0.0482  1.0000  0.0362  -2.0752   0.0000   0.2928
 -18.000  -0.7531   0.21479   0.21125   0.0460  1.0000  0.0374  -2.1076   0.0000   0.2916
 -17.500  -0.7318   0.20947   0.20591   0.0453  1.0000  0.0391  -1.9354   0.0000   0.2933
 -17.000  -0.7170   0.20304   0.19945   0.0424  1.0000  0.0417  -1.8764   0.0000   0.2912
 -16.500  -0.7198   0.19419   0.19062   0.0333  1.0000  0.0468  -2.1070   0.0000   0.2788
 -16.000  -0.7206   0.18251   0.17897   0.0278  1.0000  0.0477  -2.2573   0.0000   0.2715
 -15.500  -0.6996   0.17676   0.17320   0.0284  1.0000  0.0491  -2.0584   0.0000   0.2743
 -14.500  -0.7485   0.13647   0.13298   0.0112  1.0000  0.0369  -3.1682   0.0000   0.2482
 -14.000  -0.9500   0.07965   0.07577  -0.0221  1.0000  0.0325  -5.2546   0.0000   0.2094
 -13.500  -1.0223   0.06139   0.05696  -0.0340  1.0000  0.0318  -5.7034   0.0000   0.2005
 -13.000  -1.0605   0.05154   0.04664  -0.0368  1.0000  0.0321  -5.8264   0.0000   0.2001
 -12.500  -1.0824   0.04507   0.03972  -0.0350  1.0000  0.0329  -5.8105   0.0000   0.2034
 -12.000  -1.0917   0.04036   0.03457  -0.0304  1.0000  0.0340  -5.7042   0.0000   0.2086
 -11.500  -1.0851   0.03666   0.03040  -0.0257  1.0000  0.0353  -5.5368   0.0000   0.2135
 -11.000  -1.0633   0.03394   0.02726  -0.0221  1.0000  0.0364  -5.3182   0.0000   0.2170
 -10.500  -1.0408   0.02863   0.02162  -0.0191  1.0000  0.0391  -5.1485   0.0000   0.2201
 -10.000  -1.0062   0.02659   0.01945  -0.0166  1.0000  0.0423  -4.8426   0.0000   0.2226
  -9.500  -0.9681   0.02513   0.01775  -0.0142  1.0000  0.0465  -4.5265   0.0000   0.2250
  -9.000  -0.9327   0.02233   0.01481  -0.0115  1.0000  0.0514  -4.2541   0.0000   0.2278
  -8.500  -0.8929   0.02082   0.01319  -0.0091  1.0000  0.0569  -3.9420   0.0000   0.2306
  -8.000  -0.8567   0.01891   0.01124  -0.0060  1.0000  0.0640  -3.6556   0.0000   0.2343
  -7.500  -0.8165   0.01782   0.01006  -0.0033  1.0000  0.0733  -3.3427   0.0000   0.2377
  -7.000  -0.7783   0.01658   0.00880  -0.0003  1.0000  0.0869  -3.0405   0.0000   0.2419
  -6.500  -0.7419   0.01519   0.00752   0.0030  1.0000  0.1068  -2.8025   0.0000   0.2468
  -6.000  -0.7027   0.01417   0.00663   0.0058  1.0000  0.1371  -2.5579   0.0000   0.2515
  -5.500  -0.6638   0.01311   0.00587   0.0086  1.0000  0.1841  -2.3167   0.0000   0.2566
  -5.000  -0.6229   0.01229   0.00528   0.0110  1.0000  0.2442  -2.0709   0.0000   0.2618
  -4.500  -0.5809   0.01159   0.00489   0.0132  1.0000  0.3123  -1.8316   0.0000   0.2672
  -4.000  -0.5374   0.01104   0.00463   0.0151  1.0000  0.3806  -1.6299   0.0000   0.2729
  -3.500  -0.4919   0.01066   0.00451   0.0166  1.0000  0.4489  -1.4327   0.0000   0.2790
  -3.000  -0.4292   0.01029   0.00443   0.0146  0.9952  0.5230  -1.2162   0.0000   0.2795
  -2.500  -0.3475   0.00993   0.00437   0.0091  0.9831  0.6007  -1.0029   0.0000   0.2717
  -2.000  -0.2688   0.00956   0.00431   0.0046  0.9691  0.6721  -0.8255   0.0000   0.2627
  -1.500  -0.1905   0.00924   0.00420   0.0005  0.9546  0.7367  -0.6796   0.0000   0.2481
  -1.000  -0.1191   0.00893   0.00411  -0.0017  0.9361  0.7923  -0.5666   0.0000   0.2315
  -0.500  -0.0568   0.00872   0.00404  -0.0015  0.9107  0.8387  -0.4816   0.0000   0.2186
   0.000   0.0000   0.00863   0.00398   0.0000  0.8792  0.8792  -0.4139   0.0000   0.1750
   0.500   0.0568   0.00872   0.00404   0.0015  0.8387  0.9107  -0.4816   0.0000   0.2186
   1.000   0.1191   0.00893   0.00411   0.0017  0.7923  0.9361  -0.5666   0.0000   0.2315
   1.500   0.1904   0.00924   0.00420  -0.0004  0.7367  0.9546  -0.6796   0.0000   0.2481
   2.000   0.2688   0.00956   0.00430  -0.0045  0.6721  0.9691  -0.8255   0.0000   0.2626
   2.500   0.3475   0.00993   0.00437  -0.0091  0.6007  0.9831  -1.0029   0.0000   0.2717
   3.000   0.4292   0.01029   0.00443  -0.0146  0.5230  0.9953  -1.2162   0.0000   0.2795
   3.500   0.4918   0.01066   0.00451  -0.0166  0.4490  1.0000  -1.4324   0.0000   0.2789
   4.000   0.5372   0.01103   0.00463  -0.0151  0.3807  1.0000  -1.6296   0.0000   0.2729
   4.500   0.5807   0.01159   0.00488  -0.0132  0.3124  1.0000  -1.8313   0.0000   0.2671
   5.000   0.6227   0.01228   0.00527  -0.0110  0.2442  1.0000  -2.0706   0.0000   0.2617
   5.500   0.6637   0.01311   0.00587  -0.0086  0.1841  1.0000  -2.3164   0.0000   0.2566
   6.000   0.7025   0.01416   0.00663  -0.0058  0.1371  1.0000  -2.5576   0.0000   0.2515
   6.500   0.7419   0.01518   0.00752  -0.0030  0.1068  1.0000  -2.8023   0.0000   0.2468
   7.000   0.7783   0.01658   0.00880   0.0003  0.0869  1.0000  -3.0402   0.0000   0.2419
   7.500   0.8164   0.01782   0.01006   0.0033  0.0733  1.0000  -3.3426   0.0000   0.2377
   8.000   0.8567   0.01890   0.01123   0.0060  0.0640  1.0000  -3.6556   0.0000   0.2343
   8.500   0.8930   0.02082   0.01319   0.0091  0.0569  1.0000  -3.9422   0.0000   0.2306
   9.000   0.9328   0.02233   0.01481   0.0115  0.0514  1.0000  -4.2544   0.0000   0.2279
   9.500   0.9682   0.02513   0.01774   0.0142  0.0465  1.0000  -4.5271   0.0000   0.2250
  10.000   1.0064   0.02659   0.01944   0.0165  0.0423  1.0000  -4.8434   0.0000   0.2226
  10.500   1.0411   0.02864   0.02162   0.0190  0.0391  1.0000  -5.1496   0.0000   0.2202
  11.000   1.0637   0.03394   0.02726   0.0220  0.0364  1.0000  -5.3195   0.0000   0.2171
  11.500   1.0856   0.03667   0.03041   0.0256  0.0353  1.0000  -5.5384   0.0000   0.2136
  12.000   1.0924   0.04037   0.03459   0.0303  0.0340  1.0000  -5.7070   0.0000   0.2088
  12.500   1.0833   0.04509   0.03975   0.0348  0.0329  1.0000  -5.8139   0.0000   0.2036
  13.000   1.0616   0.05158   0.04669   0.0366  0.0321  1.0000  -5.8305   0.0000   0.2003
  13.500   1.0236   0.06146   0.05704   0.0337  0.0318  1.0000  -5.7071   0.0000   0.2009
  14.000   0.9507   0.07997   0.07610   0.0215  0.0325  1.0000  -5.2497   0.0000   0.2100
  15.500   0.7022   0.17699   0.17344  -0.0288  0.0491  1.0000  -2.0670   0.0000   0.2747
  16.000   0.7226   0.18309   0.17956  -0.0280  0.0476  1.0000  -2.2653   0.0000   0.2717
  16.500   0.2273   0.05302   0.05025   0.0217  0.0587  1.0000  -0.6992   0.0000   0.1634
  17.000   0.2277   0.05717   0.05438   0.0171  0.0529  1.0000  -0.5982   0.0000   0.1844
  17.500   0.2453   0.06200   0.05922   0.0150  0.0497  1.0000  -0.6604   0.0000   0.1962
  18.000   0.2717   0.06786   0.06508   0.0142  0.0479  1.0000  -0.8054   0.0000   0.2027
  18.500   0.2887   0.07616   0.07335   0.0113  0.0469  1.0000  -0.8131   0.0000   0.2145
  19.000   0.2876   0.07976   0.07696   0.0062  0.0422  1.0000  -0.6712   0.0000   0.2327
  19.500   0.3047   0.08541   0.08260   0.0037  0.0387  1.0000  -0.7149   0.0000   0.2403
  20.000   0.3365   0.09569   0.09287   0.0030  0.0364  1.0000  -0.8720   0.0000   0.2410
  20.500   0.3420   0.10148   0.09865  -0.0015  0.0360  1.0000  -0.7393   0.0000   0.2538
  21.000   0.3480   0.10662   0.10379  -0.0058  0.0330  1.0000  -0.6090   0.0000   0.2661
  21.500   0.3630   0.11346   0.11066  -0.0088  0.0305  1.0000  -0.6069   0.0000   0.2726
  22.000   0.3790   0.12028   0.11748  -0.0117  0.0288  1.0000  -0.6458   0.0000   0.2777
  22.500   0.3975   0.12779   0.12499  -0.0142  0.0277  1.0000  -0.7483   0.0000   0.2811
  23.000   0.4230   0.14072   0.13791  -0.0163  0.0269  1.0000  -0.8788   0.0000   0.2820
  23.500   0.4335   0.14797   0.14517  -0.0202  0.0268  1.0000  -0.8659   0.0000   0.2891
  24.000   0.4421   0.15431   0.15153  -0.0242  0.0266  1.0000  -0.8314   0.0000   0.2966
  24.500   0.4493   0.15946   0.15669  -0.0282  0.0240  1.0000  -0.7555   0.0000   0.3042
  25.000   0.4631   0.16733   0.16458  -0.0315  0.0217  1.0000  -0.7715   0.0000   0.3083
  25.500   0.4778   0.17516   0.17242  -0.0346  0.0201  1.0000  -0.8170   0.0000   0.3113
  26.500   0.9937   0.33993   0.33651  -0.1247  0.0172  1.0000  -1.7556   0.0000   0.3408
  27.000   1.0080   0.34728   0.34388  -0.1296  0.0158  1.0000  -1.7315   0.0000   0.3427
  27.500   1.0219   0.35437   0.35098  -0.1343  0.0148  1.0000  -1.7341   0.0000   0.3444
  28.000   1.0354   0.36128   0.35793  -0.1390  0.0141  1.0000  -1.7510   0.0000   0.3459
  28.500   1.0485   0.36804   0.36471  -0.1436  0.0135  1.0000  -1.7819   0.0000   0.3472
  29.000   1.0613   0.37470   0.37140  -0.1481  0.0130  1.0000  -1.8442   0.0000   0.3484
  29.500   1.0735   0.38154   0.37826  -0.1523  0.0127  1.0000  -1.9511   0.0000   0.3492
  30.000   1.0852   0.39061   0.38736  -0.1553  0.0123  1.0000  -2.0869   0.0000   0.3489
  31.500   1.1189   0.41530   0.41211  -0.1705  0.0120  1.0000  -2.1413   0.0000   0.3539
  32.000   1.1302   0.42152   0.41834  -0.1765  0.0120  1.0000  -2.1232   0.0000   0.3561
  32.500   1.1418   0.42804   0.42489  -0.1826  0.0118  1.0000  -2.0758   0.0000   0.3584
  33.000   1.1550   0.43580   0.43267  -0.1887  0.0107  1.0000  -1.9684   0.0000   0.3604
  33.500   1.1658   0.44346   0.44036  -0.1939  0.0093  1.0000  -1.9482   0.0000   0.3616
  34.000   1.1757   0.45069   0.44763  -0.1990  0.0084  1.0000  -1.9583   0.0000   0.3628
  34.500   1.1850   0.45763   0.45460  -0.2040  0.0079  1.0000  -1.9887   0.0000   0.3638
  35.000   1.1936   0.46437   0.46136  -0.2089  0.0075  1.0000  -2.0394   0.0000   0.3647
  35.500   1.2013   0.47131   0.46833  -0.2135  0.0072  1.0000  -2.1139   0.0000   0.3654


