xflr5 v6.50

 Calculated polar for: NACA 0012

 1 1 Reynolds number fixed          Mach number fixed         

 xtrf =   1.000 (top)        1.000 (bottom)
 Mach =   0.000     Re =     0.150 e 6     Ncrit =   9.000

  alpha     CL        CD       CDp       Cm    Top Xtr Bot Xtr   Cpmin    Chinge    XCp    
 ------- -------- --------- --------- -------- ------- ------- -------- --------- ---------
 -43.000  -0.7359   0.48499   0.48254   0.1551  1.0000  0.0071  -0.9190   0.0000   0.3905
 -42.500  -0.7355   0.47807   0.47557   0.1521  1.0000  0.0075  -0.8939   0.0000   0.3892
 -42.000  -0.7353   0.47190   0.46936   0.1492  1.0000  0.0080  -0.8857   0.0000   0.3877
 -41.500  -0.7347   0.46553   0.46294   0.1462  1.0000  0.0086  -0.8860   0.0000   0.3861
 -41.000  -0.7337   0.45885   0.45623   0.1432  1.0000  0.0094  -0.8886   0.0000   0.3845
 -40.500  -0.7324   0.45200   0.44933   0.1402  1.0000  0.0103  -0.8887   0.0000   0.3828
 -40.000  -0.7306   0.44512   0.44240   0.1371  1.0000  0.0112  -0.8893   0.0000   0.3812
 -39.500  -0.7287   0.43831   0.43554   0.1341  1.0000  0.0116  -0.8882   0.0000   0.3794
 -39.000  -0.7266   0.43156   0.42876   0.1310  1.0000  0.0117  -0.8844   0.0000   0.3776
 -38.500  -0.7243   0.42490   0.42205   0.1278  1.0000  0.0119  -0.8792   0.0000   0.3756
 -38.000  -0.7220   0.41826   0.41537   0.1246  1.0000  0.0119  -0.8735   0.0000   0.3734
 -35.500  -1.2007   0.46716   0.46333   0.2086  1.0000  0.0122  -2.2148   0.0000   0.3616
 -35.000  -1.1931   0.45079   0.44691   0.2069  1.0000  0.0126  -2.0869   0.0000   0.3631
 -34.500  -1.1847   0.44397   0.44005   0.2025  1.0000  0.0131  -2.0172   0.0000   0.3626
 -34.000  -1.1753   0.43770   0.43374   0.1977  1.0000  0.0139  -1.9795   0.0000   0.3617
 -33.500  -1.1652   0.43123   0.42722   0.1926  1.0000  0.0149  -1.9630   0.0000   0.3606
 -33.000  -1.1545   0.42452   0.42048   0.1875  1.0000  0.0162  -1.9576   0.0000   0.3594
 -32.500  -1.1431   0.41768   0.41360   0.1822  1.0000  0.0176  -1.9640   0.0000   0.3580
 -32.000  -1.1301   0.41303   0.40893   0.1752  1.0000  0.0185  -2.0306   0.0000   0.3552
 -31.000  -0.6359   0.29847   0.29512   0.0773  1.0000  0.0192  -0.9594   0.0000   0.3443
 -30.000  -1.0849   0.39081   0.38662   0.1519  1.0000  0.0189  -2.0332   0.0000   0.3462
 -29.500  -1.0718   0.37635   0.37211   0.1505  1.0000  0.0194  -1.8736   0.0000   0.3479
 -29.000  -1.0592   0.36924   0.36497   0.1466  1.0000  0.0200  -1.7727   0.0000   0.3474
 -28.500  -1.0462   0.36278   0.35848   0.1422  1.0000  0.0208  -1.7336   0.0000   0.3463
 -28.000  -1.0328   0.35629   0.35195   0.1376  1.0000  0.0218  -1.7132   0.0000   0.3450
 -27.500  -1.0190   0.34965   0.34529   0.1329  1.0000  0.0230  -1.7089   0.0000   0.3434
 -27.000  -1.0049   0.34285   0.33845   0.1280  1.0000  0.0246  -1.7254   0.0000   0.3416
 -26.500  -0.9901   0.33696   0.33256   0.1217  1.0000  0.0263  -1.8307   0.0000   0.3382
 -26.000  -0.9787   0.33485   0.33045   0.1137  1.0000  0.0268  -2.0005   0.0000   0.3326
 -25.500  -0.9657   0.32538   0.32100   0.1090  1.0000  0.0272  -2.0725   0.0000   0.3304
 -25.000  -0.9482   0.31427   0.30984   0.1082  1.0000  0.0282  -1.9063   0.0000   0.3327
 -24.500  -0.9327   0.30802   0.30354   0.1046  1.0000  0.0298  -1.8321   0.0000   0.3319
 -24.000  -0.9172   0.30190   0.29740   0.1003  1.0000  0.0328  -1.7873   0.0000   0.3302
 -23.500  -0.9023   0.29630   0.29178   0.0942  1.0000  0.0355  -1.8342   0.0000   0.3261
 -23.000  -0.8916   0.29401   0.28951   0.0864  1.0000  0.0362  -1.9299   0.0000   0.3197
 -22.500  -0.8817   0.29129   0.28680   0.0795  1.0000  0.0363  -1.9926   0.0000   0.3140
 -22.000  -0.8608   0.27599   0.27147   0.0790  1.0000  0.0371  -1.8542   0.0000   0.3163
 -21.500  -0.8419   0.26839   0.26384   0.0772  1.0000  0.0383  -1.7064   0.0000   0.3172
 -21.000  -0.8249   0.26235   0.25776   0.0738  1.0000  0.0400  -1.6142   0.0000   0.3159
 -20.500  -0.8087   0.25619   0.25160   0.0699  1.0000  0.0424  -1.5922   0.0000   0.3137
 -20.000  -0.7956   0.25035   0.24575   0.0636  1.0000  0.0462  -1.6954   0.0000   0.3080
 -19.500  -0.7960   0.24747   0.24293   0.0542  1.0000  0.0471  -1.9401   0.0000   0.2970
 -19.000  -0.7702   0.23419   0.22962   0.0552  1.0000  0.0487  -1.8176   0.0000   0.3011
 -18.500  -0.7510   0.22777   0.22318   0.0535  1.0000  0.0515  -1.7315   0.0000   0.3015
 -18.000  -0.7372   0.22096   0.21636   0.0495  1.0000  0.0562  -1.7445   0.0000   0.2982
 -17.500  -0.7502   0.21709   0.21256   0.0378  1.0000  0.0592  -2.0634   0.0000   0.2821
 -17.000  -0.7147   0.20574   0.20113   0.0414  1.0000  0.0622  -1.7862   0.0000   0.2903
 -16.500  -0.6990   0.19909   0.19447   0.0390  1.0000  0.0652  -1.7251   0.0000   0.2888
 -16.000  -0.6914   0.19184   0.18723   0.0342  1.0000  0.0703  -1.7619   0.0000   0.2831
 -15.500  -0.7125   0.18452   0.17998   0.0229  1.0000  0.0725  -2.0656   0.0000   0.2664
 -15.000  -0.6821   0.17465   0.17009   0.0258  1.0000  0.0749  -1.8525   0.0000   0.2726
 -14.500  -0.6630   0.16822   0.16364   0.0251  1.0000  0.0789  -1.7401   0.0000   0.2732
 -14.000  -0.6853   0.15886   0.15434   0.0147  1.0000  0.0866  -1.9964   0.0000   0.2574
 -13.500  -0.6820   0.14762   0.14314   0.0124  1.0000  0.0886  -2.0420   0.0000   0.2545
 -13.000  -0.6554   0.14249   0.13797   0.0144  1.0000  0.0924  -1.9046   0.0000   0.2588
 -12.500  -0.9739   0.06369   0.05829  -0.0361  1.0000  0.0477  -4.8017   0.0000   0.1988
 -12.000  -1.0159   0.05572   0.04984  -0.0340  1.0000  0.0477  -4.9138   0.0000   0.2033
 -11.500  -1.0397   0.04860   0.04224  -0.0291  1.0000  0.0485  -4.9466   0.0000   0.2095
 -11.000  -1.0324   0.04340   0.03672  -0.0256  1.0000  0.0503  -4.8279   0.0000   0.2133
 -10.500  -1.0127   0.03993   0.03294  -0.0224  1.0000  0.0536  -4.6271   0.0000   0.2166
 -10.000  -0.9908   0.03657   0.02900  -0.0187  1.0000  0.0580  -4.4528   0.0000   0.2204
  -9.500  -0.9622   0.03146   0.02339  -0.0158  1.0000  0.0616  -4.2905   0.0000   0.2234
  -9.000  -0.9239   0.02868   0.02041  -0.0136  1.0000  0.0670  -4.0257   0.0000   0.2257
  -8.500  -0.8838   0.02601   0.01736  -0.0111  1.0000  0.0734  -3.7746   0.0000   0.2283
  -8.000  -0.8440   0.02389   0.01526  -0.0089  1.0000  0.0842  -3.4814   0.0000   0.2308
  -7.500  -0.8042   0.02167   0.01307  -0.0064  1.0000  0.0965  -3.2044   0.0000   0.2339
  -7.000  -0.7656   0.01980   0.01117  -0.0034  1.0000  0.1129  -2.9329   0.0000   0.2378
  -6.500  -0.7275   0.01830   0.00971  -0.0004  1.0000  0.1389  -2.7098   0.0000   0.2422
  -6.000  -0.6907   0.01677   0.00841   0.0028  1.0000  0.1772  -2.4881   0.0000   0.2472
  -5.500  -0.6545   0.01539   0.00742   0.0059  1.0000  0.2358  -2.2628   0.0000   0.2527
  -5.000  -0.6164   0.01432   0.00667   0.0089  1.0000  0.3080  -2.0307   0.0000   0.2585
  -4.500  -0.5767   0.01352   0.00620   0.0117  1.0000  0.3834  -1.8042   0.0000   0.2647
  -4.000  -0.5353   0.01292   0.00589   0.0142  1.0000  0.4568  -1.6109   0.0000   0.2714
  -3.500  -0.4927   0.01246   0.00572   0.0166  1.0000  0.5289  -1.4205   0.0000   0.2790
  -3.000  -0.4486   0.01214   0.00563   0.0188  1.0000  0.5993  -1.2378   0.0000   0.2876
  -2.500  -0.4044   0.01195   0.00576   0.0211  1.0000  0.6686  -1.0823   0.0000   0.2981
  -2.000  -0.3614   0.01195   0.00601   0.0235  1.0000  0.7377  -0.9410   0.0000   0.3114
  -1.500  -0.2937   0.01217   0.00648   0.0215  0.9907  0.8066  -0.7884   0.0000   0.3197
  -1.000  -0.2072   0.01250   0.00690   0.0164  0.9708  0.8663  -0.6424   0.0000   0.3259
  -0.500  -0.1114   0.01283   0.00725   0.0097  0.9520  0.9087  -0.5190   0.0000   0.3345
   0.000  -0.0000   0.01300   0.00742   0.0000  0.9346  0.9346  -0.4116   0.0000   1.0001
   0.500   0.1114   0.01283   0.00725  -0.0097  0.9087  0.9520  -0.5190   0.0000   0.3345
   1.000   0.2072   0.01250   0.00690  -0.0164  0.8663  0.9708  -0.6424   0.0000   0.3259
   1.500   0.2937   0.01216   0.00648  -0.0215  0.8066  0.9907  -0.7884   0.0000   0.3197
   2.000   0.3613   0.01195   0.00601  -0.0235  0.7378  1.0000  -0.9408   0.0000   0.3114
   2.500   0.4043   0.01195   0.00576  -0.0211  0.6686  1.0000  -1.0821   0.0000   0.2981
   3.000   0.4485   0.01214   0.00563  -0.0188  0.5994  1.0000  -1.2376   0.0000   0.2876
   3.500   0.4925   0.01246   0.00572  -0.0166  0.5289  1.0000  -1.4202   0.0000   0.2790
   4.000   0.5351   0.01292   0.00588  -0.0142  0.4569  1.0000  -1.6106   0.0000   0.2714
   4.500   0.5766   0.01352   0.00620  -0.0116  0.3835  1.0000  -1.8040   0.0000   0.2647
   5.000   0.6163   0.01432   0.00667  -0.0089  0.3081  1.0000  -2.0304   0.0000   0.2585
   5.500   0.6544   0.01538   0.00742  -0.0059  0.2359  1.0000  -2.2626   0.0000   0.2527
   6.000   0.6906   0.01677   0.00841  -0.0027  0.1772  1.0000  -2.4879   0.0000   0.2472
   6.500   0.7275   0.01830   0.00971   0.0004  0.1389  1.0000  -2.7097   0.0000   0.2421
   7.000   0.7656   0.01979   0.01117   0.0035  0.1129  1.0000  -2.9327   0.0000   0.2378
   7.500   0.8042   0.02167   0.01306   0.0064  0.0965  1.0000  -3.2044   0.0000   0.2339
   8.000   0.8440   0.02388   0.01526   0.0089  0.0842  1.0000  -3.4814   0.0000   0.2308
   8.500   0.8839   0.02601   0.01736   0.0111  0.0734  1.0000  -3.7747   0.0000   0.2283
   9.000   0.9240   0.02868   0.02041   0.0135  0.0670  1.0000  -4.0260   0.0000   0.2257
   9.500   0.9623   0.03147   0.02340   0.0157  0.0616  1.0000  -4.2909   0.0000   0.2234
  10.000   0.9910   0.03657   0.02900   0.0186  0.0580  1.0000  -4.4533   0.0000   0.2205
  10.500   1.0130   0.03993   0.03294   0.0224  0.0536  1.0000  -4.6280   0.0000   0.2167
  11.000   1.0328   0.04341   0.03673   0.0255  0.0503  1.0000  -4.8291   0.0000   0.2134
  11.500   1.0402   0.04863   0.04227   0.0290  0.0485  1.0000  -4.9478   0.0000   0.2096
  12.000   1.0164   0.05579   0.04992   0.0339  0.0477  1.0000  -4.9143   0.0000   0.2034
  12.500   0.9745   0.06380   0.05840   0.0359  0.0477  1.0000  -4.8018   0.0000   0.1991
  13.000   0.7330   0.11737   0.11287   0.0000  0.0583  1.0000  -2.9183   0.0000   0.2355
  13.500   0.1719   0.03235   0.02900   0.0317  0.1194  1.0000  -0.6960   0.0000   0.0798
  14.000   0.1508   0.03441   0.03099   0.0273  0.1112  1.0000  -0.5432   0.0000   0.0872
  14.500   0.1736   0.03795   0.03450   0.0277  0.1048  1.0000  -0.6221   0.0000   0.1052
  15.000   0.1952   0.04386   0.04037   0.0269  0.1022  1.0000  -0.6614   0.0000   0.1242
  15.500   0.1882   0.04631   0.04279   0.0225  0.0937  1.0000  -0.5519   0.0000   0.1439
  16.000   0.2280   0.05335   0.04981   0.0239  0.0869  1.0000  -0.7028   0.0000   0.1541
  16.500   0.2166   0.05573   0.05216   0.0182  0.0811  1.0000  -0.5341   0.0000   0.1763
  17.000   0.2357   0.06064   0.05705   0.0166  0.0751  1.0000  -0.6004   0.0000   0.1879
  17.500   0.2699   0.06983   0.06625   0.0166  0.0724  1.0000  -0.7454   0.0000   0.1941
  18.000   0.2624   0.07222   0.06862   0.0109  0.0697  1.0000  -0.6035   0.0000   0.2146
  18.500   0.2762   0.07759   0.07398   0.0081  0.0647  1.0000  -0.6147   0.0000   0.2257
  19.000   0.2953   0.08359   0.07999   0.0061  0.0614  1.0000  -0.6755   0.0000   0.2329
  19.500   0.3238   0.09403   0.09040   0.0049  0.0590  1.0000  -0.7810   0.0000   0.2362
  20.000   0.3214   0.09637   0.09274  -0.0003  0.0541  1.0000  -0.6360   0.0000   0.2525
  20.500   0.3382   0.10285   0.09922  -0.0029  0.0499  1.0000  -0.6532   0.0000   0.2587
  21.000   0.3738   0.11615   0.11253  -0.0031  0.0472  1.0000  -0.8132   0.0000   0.2561
  21.500   0.3758   0.12055   0.11692  -0.0081  0.0467  1.0000  -0.6866   0.0000   0.2688
  22.000   0.3813   0.12485   0.12123  -0.0124  0.0441  1.0000  -0.5851   0.0000   0.2794
  22.500   0.3955   0.13199   0.12838  -0.0155  0.0412  1.0000  -0.6158   0.0000   0.2851
  23.000   0.4108   0.13938   0.13577  -0.0185  0.0391  1.0000  -0.6667   0.0000   0.2896
  23.500   0.4284   0.14762   0.14402  -0.0212  0.0375  1.0000  -0.7466   0.0000   0.2926
  24.000   0.4565   0.16283   0.15925  -0.0228  0.0364  1.0000  -0.8975   0.0000   0.2913
  24.500   0.4636   0.16877   0.16519  -0.0272  0.0362  1.0000  -0.8518   0.0000   0.2990
  25.000   0.4674   0.17237   0.16881  -0.0316  0.0351  1.0000  -0.7611   0.0000   0.3075
  25.500   0.4791   0.17962   0.17608  -0.0350  0.0311  1.0000  -0.7453   0.0000   0.3121
  26.000   0.4932   0.18795   0.18443  -0.0382  0.0289  1.0000  -0.7675   0.0000   0.3152
  26.500   0.5115   0.19868   0.19517  -0.0410  0.0274  1.0000  -0.8468   0.0000   0.3161
  27.000   0.5300   0.21275   0.20925  -0.0441  0.0268  1.0000  -0.8697   0.0000   0.3177
  27.500   0.5359   0.21855   0.21506  -0.0483  0.0266  1.0000  -0.7788   0.0000   0.3238
  28.000   0.5434   0.22462   0.22116  -0.0521  0.0257  1.0000  -0.7039   0.0000   0.3288
  28.500   0.5543   0.23303   0.22959  -0.0557  0.0241  1.0000  -0.6802   0.0000   0.3321
  29.000   0.5657   0.24187   0.23845  -0.0591  0.0228  1.0000  -0.6859   0.0000   0.3350
  29.500   0.5769   0.25073   0.24733  -0.0626  0.0216  1.0000  -0.7257   0.0000   0.3376
  30.000   0.5880   0.25962   0.25624  -0.0661  0.0207  1.0000  -0.7705   0.0000   0.3400
  30.500   0.5993   0.26878   0.26545  -0.0695  0.0199  1.0000  -0.8235   0.0000   0.3421
  31.000   0.6121   0.27954   0.27624  -0.0729  0.0193  1.0000  -0.8980   0.0000   0.3435
  33.000   1.1528   0.43642   0.43240  -0.1876  0.0161  1.0000  -1.9487   0.0000   0.3598
  33.500   1.1632   0.44385   0.43986  -0.1927  0.0149  1.0000  -1.9536   0.0000   0.3611
  34.000   1.1730   0.45104   0.44710  -0.1977  0.0138  1.0000  -1.9701   0.0000   0.3621
  34.500   1.1822   0.45805   0.45415  -0.2025  0.0131  1.0000  -2.0083   0.0000   0.3630
  35.000   1.1902   0.46568   0.46181  -0.2067  0.0126  1.0000  -2.0788   0.0000   0.3635
  37.500   1.2301   0.50615   0.50244  -0.2329  0.0119  1.0000  -1.9605   0.0000   0.3693
  38.000   1.2380   0.51280   0.50912  -0.2388  0.0118  1.0000  -1.9212   0.0000   0.3707
  38.500   1.2456   0.51985   0.51621  -0.2446  0.0116  1.0000  -1.8895   0.0000   0.3720
  39.000   1.2527   0.52719   0.52359  -0.2502  0.0113  1.0000  -1.9073   0.0000   0.3731
  39.500   1.2591   0.53463   0.53108  -0.2556  0.0110  1.0000  -1.9382   0.0000   0.3741
  40.000   1.2648   0.54201   0.53850  -0.2610  0.0105  1.0000  -1.9725   0.0000   0.3751
  40.500   1.2700   0.54930   0.54584  -0.2664  0.0100  1.0000  -2.0080   0.0000   0.3760
  41.000   1.2748   0.55653   0.55311  -0.2718  0.0096  1.0000  -2.0429   0.0000   0.3769
  41.500   1.2791   0.56365   0.56027  -0.2772  0.0091  1.0000  -2.0774   0.0000   0.3777
  42.000   1.2828   0.57057   0.56725  -0.2826  0.0085  1.0000  -2.1155   0.0000   0.3786
  42.500   1.2860   0.57724   0.57396  -0.2880  0.0080  1.0000  -2.1593   0.0000   0.3793
  43.000   1.2886   0.58387   0.58063  -0.2933  0.0076  1.0000  -2.2026   0.0000   0.3800
  43.500   1.2904   0.59050   0.58731  -0.2984  0.0073  1.0000  -2.2566   0.0000   0.3806
  44.000   1.2909   0.59866   0.59552  -0.3028  0.0070  1.0000  -2.3330   0.0000   0.3808


