xflr5 v6.50

 Calculated polar for: NACA 0012

 1 1 Reynolds number fixed          Mach number fixed         

 xtrf =   1.000 (top)        1.000 (bottom)
 Mach =   0.000     Re =     0.350 e 6     Ncrit =   9.000

  alpha     CL        CD       CDp       Cm    Top Xtr Bot Xtr   Cpmin    Chinge    XCp    
 ------- -------- --------- --------- -------- ------- ------- -------- --------- ---------
 -42.000  -1.2872   0.53720   0.53501   0.2842  1.0000  0.0032  -2.4567   0.0000   0.3778
 -41.500  -1.2848   0.53104   0.52882   0.2795  1.0000  0.0033  -2.3570   0.0000   0.3774
 -41.000  -1.2814   0.52579   0.52354   0.2742  1.0000  0.0034  -2.2701   0.0000   0.3768
 -40.500  -1.2773   0.52052   0.51824   0.2689  1.0000  0.0036  -2.1905   0.0000   0.3760
 -40.000  -1.2726   0.51514   0.51284   0.2635  1.0000  0.0038  -2.1138   0.0000   0.3752
 -39.500  -1.2673   0.50947   0.50713   0.2581  1.0000  0.0041  -2.0462   0.0000   0.3743
 -39.000  -1.2614   0.50351   0.50114   0.2527  1.0000  0.0044  -1.9875   0.0000   0.3734
 -38.500  -1.2550   0.49738   0.49498   0.2473  1.0000  0.0047  -1.9325   0.0000   0.3724
 -38.000  -1.2482   0.49113   0.48871   0.2419  1.0000  0.0050  -1.8879   0.0000   0.3715
 -37.500  -1.2410   0.48475   0.48231   0.2366  1.0000  0.0054  -1.8826   0.0000   0.3705
 -37.000  -1.2331   0.47821   0.47574   0.2312  1.0000  0.0058  -1.8850   0.0000   0.3694
 -36.500  -1.2244   0.47138   0.46887   0.2259  1.0000  0.0062  -1.9033   0.0000   0.3684
 -36.000  -1.2150   0.46455   0.46202   0.2204  1.0000  0.0065  -1.9372   0.0000   0.3672
 -35.500  -1.2053   0.45775   0.45520   0.2148  1.0000  0.0066  -1.9783   0.0000   0.3659
 -35.000  -1.1954   0.45103   0.44846   0.2092  1.0000  0.0067  -2.0261   0.0000   0.3645
 -34.500  -1.1853   0.44432   0.44173   0.2035  1.0000  0.0067  -2.0850   0.0000   0.3629
 -34.000  -1.1750   0.43757   0.43496   0.1977  1.0000  0.0068  -2.1644   0.0000   0.3612
 -33.500  -1.1645   0.43089   0.42828   0.1916  1.0000  0.0068  -2.2877   0.0000   0.3592
 -33.000  -1.1554   0.41998   0.41735   0.1877  1.0000  0.0071  -2.3367   0.0000   0.3587
 -32.500  -1.1460   0.41389   0.41123   0.1836  1.0000  0.0074  -2.2081   0.0000   0.3583
 -32.000  -1.1355   0.40821   0.40553   0.1788  1.0000  0.0079  -2.1123   0.0000   0.3574
 -31.500  -1.1244   0.40219   0.39949   0.1739  1.0000  0.0084  -2.0398   0.0000   0.3562
 -31.000  -1.1128   0.39587   0.39314   0.1689  1.0000  0.0090  -1.9799   0.0000   0.3549
 -30.500  -1.1008   0.38934   0.38658   0.1639  1.0000  0.0099  -1.9256   0.0000   0.3536
 -30.000  -1.0879   0.38249   0.37970   0.1588  1.0000  0.0111  -1.8896   0.0000   0.3521
 -29.500  -1.0739   0.37560   0.37280   0.1533  1.0000  0.0117  -1.8849   0.0000   0.3501
 -29.000  -1.0606   0.36901   0.36620   0.1478  1.0000  0.0118  -1.8696   0.0000   0.3480
 -28.500  -1.0474   0.36246   0.35963   0.1423  1.0000  0.0119  -1.8829   0.0000   0.3458
 -28.000  -1.0342   0.35587   0.35303   0.1368  1.0000  0.0120  -1.9310   0.0000   0.3435
 -27.500  -1.0211   0.34918   0.34632   0.1314  1.0000  0.0121  -1.9859   0.0000   0.3411
 -27.000  -1.0077   0.34225   0.33937   0.1262  1.0000  0.0121  -2.0337   0.0000   0.3389
 -26.500  -0.9940   0.33510   0.33220   0.1212  1.0000  0.0121  -2.0874   0.0000   0.3367
 -26.000  -0.9812   0.32433   0.32144   0.1182  1.0000  0.0126  -2.1115   0.0000   0.3362
 -25.500  -0.9665   0.31856   0.31566   0.1148  1.0000  0.0131  -1.9910   0.0000   0.3359
 -25.000  -0.9516   0.31294   0.31002   0.1107  1.0000  0.0140  -1.9141   0.0000   0.3347
 -24.500  -0.9365   0.30681   0.30386   0.1063  1.0000  0.0157  -1.8877   0.0000   0.3331
 -24.000  -0.9210   0.29999   0.29704   0.0992  1.0000  0.0185  -2.0718   0.0000   0.3281
 -23.500  -0.4603   0.16430   0.16189   0.0269  1.0000  0.0198  -0.9164   0.0000   0.2984
 -23.000  -0.4446   0.15721   0.15480   0.0240  1.0000  0.0208  -0.8225   0.0000   0.2954
 -22.500  -0.4300   0.14991   0.14748   0.0209  1.0000  0.0218  -0.7647   0.0000   0.2911
 -22.000  -0.4155   0.14251   0.14009   0.0178  1.0000  0.0232  -0.7186   0.0000   0.2862
 -21.500  -0.4018   0.13507   0.13264   0.0144  1.0000  0.0254  -0.7065   0.0000   0.2802
 -21.000  -0.3949   0.12877   0.12633   0.0100  1.0000  0.0266  -0.8371   0.0000   0.2698
 -20.500  -0.3842   0.12146   0.11903   0.0062  1.0000  0.0268  -0.9148   0.0000   0.2613
 -20.000  -0.3653   0.11054   0.10810   0.0033  1.0000  0.0277  -0.9397   0.0000   0.2554
 -19.500  -0.3436   0.10443   0.10199   0.0016  1.0000  0.0295  -0.8233   0.0000   0.2526
 -19.000  -0.3277   0.09820   0.09576  -0.0013  1.0000  0.0335  -0.8067   0.0000   0.2453
 -18.500  -0.7707   0.21896   0.21597   0.0488  1.0000  0.0273  -2.2880   0.0000   0.2927
 -18.000  -0.7501   0.21404   0.21103   0.0486  1.0000  0.0288  -2.0773   0.0000   0.2952
 -17.500  -0.7334   0.20852   0.20551   0.0460  1.0000  0.0310  -1.9777   0.0000   0.2941
 -17.000  -0.7298   0.19915   0.19615   0.0382  1.0000  0.0360  -2.1815   0.0000   0.2841
 -16.500  -0.7215   0.19014   0.18714   0.0334  1.0000  0.0363  -2.2600   0.0000   0.2784
 -15.000  -1.0040   0.08382   0.08029  -0.0173  1.0000  0.0246  -6.1223   0.0000   0.2133
 -14.500  -1.0637   0.06611   0.06213  -0.0286  1.0000  0.0244  -6.5138   0.0000   0.2047
 -14.000  -1.0977   0.05484   0.05045  -0.0344  1.0000  0.0247  -6.6319   0.0000   0.2014
 -13.500  -1.1183   0.04690   0.04211  -0.0362  1.0000  0.0252  -6.6190   0.0000   0.2014
 -13.000  -1.1279   0.04124   0.03607  -0.0352  1.0000  0.0259  -6.5105   0.0000   0.2035
 -12.500  -1.1258   0.03749   0.03198  -0.0322  1.0000  0.0266  -6.3041   0.0000   0.2069
 -12.000  -1.1289   0.03239   0.02642  -0.0274  1.0000  0.0277  -6.1668   0.0000   0.2121
 -11.500  -1.1155   0.02886   0.02266  -0.0230  1.0000  0.0294  -5.9553   0.0000   0.2164
 -11.000  -1.0871   0.02678   0.02039  -0.0200  1.0000  0.0312  -5.6488   0.0000   0.2193
 -10.500  -1.0542   0.02483   0.01826  -0.0172  1.0000  0.0333  -5.3381   0.0000   0.2220
 -10.000  -1.0176   0.02315   0.01637  -0.0147  1.0000  0.0356  -5.0181   0.0000   0.2245
  -9.500  -0.9857   0.02069   0.01377  -0.0115  1.0000  0.0391  -4.7393   0.0000   0.2279
  -9.000  -0.9456   0.01954   0.01254  -0.0093  1.0000  0.0438  -4.3873   0.0000   0.2304
  -8.500  -0.9051   0.01835   0.01120  -0.0068  1.0000  0.0478  -4.0573   0.0000   0.2332
  -8.000  -0.8699   0.01675   0.00961  -0.0035  1.0000  0.0548  -3.7551   0.0000   0.2373
  -7.500  -0.8316   0.01559   0.00838  -0.0004  1.0000  0.0627  -3.4443   0.0000   0.2413
  -7.000  -0.7911   0.01471   0.00746   0.0023  1.0000  0.0737  -3.1208   0.0000   0.2452
  -6.500  -0.7523   0.01368   0.00652   0.0053  1.0000  0.0915  -2.8551   0.0000   0.2498
  -6.000  -0.7121   0.01282   0.00578   0.0080  1.0000  0.1165  -2.6015   0.0000   0.2545
  -5.500  -0.6711   0.01202   0.00517   0.0105  1.0000  0.1548  -2.3495   0.0000   0.2593
  -5.000  -0.6293   0.01126   0.00466   0.0127  1.0000  0.2073  -2.0982   0.0000   0.2643
  -4.500  -0.5857   0.01069   0.00432   0.0146  1.0000  0.2663  -1.8529   0.0000   0.2694
  -4.000  -0.5290   0.01012   0.00407   0.0137  0.9973  0.3373  -1.6194   0.0000   0.2707
  -3.500  -0.4515   0.00955   0.00384   0.0087  0.9889  0.4168  -1.3597   0.0000   0.2642
  -3.000  -0.3719   0.00904   0.00361   0.0034  0.9804  0.4932  -1.1277   0.0000   0.2543
  -2.500  -0.2977   0.00857   0.00340  -0.0004  0.9683  0.5636  -0.9344   0.0000   0.2440
  -2.000  -0.2256   0.00811   0.00321  -0.0035  0.9549  0.6292  -0.7756   0.0000   0.2298
  -1.500  -0.1614   0.00770   0.00302  -0.0046  0.9360  0.6891  -0.6515   0.0000   0.2168
  -1.000  -0.1046   0.00738   0.00287  -0.0038  0.9100  0.7438  -0.5550   0.0000   0.2089
  -0.500  -0.0512   0.00716   0.00276  -0.0021  0.8782  0.7941  -0.4781   0.0000   0.2036
   0.000   0.0000   0.00708   0.00276  -0.0000  0.8385  0.8385  -0.4144   0.0000   0.4558
   0.500   0.0512   0.00716   0.00276   0.0021  0.7941  0.8782  -0.4781   0.0000   0.2036
   1.000   0.1046   0.00738   0.00287   0.0038  0.7438  0.9100  -0.5550   0.0000   0.2089
   1.500   0.1613   0.00770   0.00302   0.0046  0.6891  0.9360  -0.6515   0.0000   0.2168
   2.000   0.2256   0.00811   0.00321   0.0035  0.6292  0.9549  -0.7755   0.0000   0.2298
   2.500   0.2977   0.00857   0.00340   0.0004  0.5636  0.9683  -0.9344   0.0000   0.2440
   3.000   0.3719   0.00904   0.00361  -0.0034  0.4932  0.9804  -1.1277   0.0000   0.2543
   3.500   0.4515   0.00955   0.00383  -0.0087  0.4168  0.9889  -1.3597   0.0000   0.2642
   4.000   0.5290   0.01011   0.00407  -0.0137  0.3373  0.9974  -1.6195   0.0000   0.2707
   4.500   0.5855   0.01068   0.00432  -0.0146  0.2664  1.0000  -1.8525   0.0000   0.2693
   5.000   0.6292   0.01126   0.00465  -0.0127  0.2074  1.0000  -2.0978   0.0000   0.2642
   5.500   0.6710   0.01202   0.00517  -0.0105  0.1548  1.0000  -2.3492   0.0000   0.2593
   6.000   0.7120   0.01281   0.00578  -0.0080  0.1166  1.0000  -2.6012   0.0000   0.2544
   6.500   0.7522   0.01368   0.00652  -0.0052  0.0916  1.0000  -2.8548   0.0000   0.2497
   7.000   0.7910   0.01471   0.00746  -0.0023  0.0737  1.0000  -3.1206   0.0000   0.2452
   7.500   0.8315   0.01559   0.00838   0.0004  0.0627  1.0000  -3.4441   0.0000   0.2413
   8.000   0.8699   0.01675   0.00961   0.0035  0.0548  1.0000  -3.7549   0.0000   0.2373
   8.500   0.9051   0.01835   0.01120   0.0068  0.0478  1.0000  -4.0573   0.0000   0.2333
   9.000   0.9456   0.01954   0.01254   0.0093  0.0438  1.0000  -4.3876   0.0000   0.2304
   9.500   0.9859   0.02069   0.01376   0.0115  0.0391  1.0000  -4.7399   0.0000   0.2280
  10.000   1.0178   0.02315   0.01637   0.0147  0.0356  1.0000  -5.0190   0.0000   0.2246
  10.500   1.0545   0.02483   0.01826   0.0172  0.0333  1.0000  -5.3393   0.0000   0.2221
  11.000   1.0875   0.02678   0.02040   0.0199  0.0312  1.0000  -5.6504   0.0000   0.2194
  11.500   1.1160   0.02887   0.02266   0.0229  0.0294  1.0000  -5.9575   0.0000   0.2165
  12.000   1.1295   0.03244   0.02647   0.0272  0.0277  1.0000  -6.1687   0.0000   0.2122
  12.500   1.1268   0.03749   0.03198   0.0320  0.0266  1.0000  -6.3092   0.0000   0.2071
  13.000   1.1292   0.04125   0.03608   0.0349  0.0259  1.0000  -6.5162   0.0000   0.2038
  13.500   1.1198   0.04691   0.04213   0.0360  0.0252  1.0000  -6.6253   0.0000   0.2016
  14.000   1.0994   0.05486   0.05048   0.0340  0.0246  1.0000  -6.6394   0.0000   0.2018
  14.500   1.0657   0.06616   0.06218   0.0282  0.0243  1.0000  -6.5217   0.0000   0.2052
  15.000   1.0057   0.08403   0.08050   0.0167  0.0246  1.0000  -6.1249   0.0000   0.2139
  16.000   0.7170   0.18088   0.17785  -0.0294  0.0364  1.0000  -2.3325   0.0000   0.2736
  16.500   0.7236   0.19056   0.18756  -0.0339  0.0363  1.0000  -2.2621   0.0000   0.2790
  17.000   0.7319   0.19963   0.19663  -0.0388  0.0359  1.0000  -2.1818   0.0000   0.2847
  17.500   0.7357   0.20906   0.20604  -0.0465  0.0309  1.0000  -1.9820   0.0000   0.2945
  18.000   0.7524   0.21459   0.21158  -0.0490  0.0287  1.0000  -2.0852   0.0000   0.2955
  18.500   0.7672   0.22247   0.21946  -0.0496  0.0269  1.0000  -2.1838   0.0000   0.2942
  19.000   0.7782   0.23164   0.22863  -0.0543  0.0268  1.0000  -2.0444   0.0000   0.2987
  19.500   0.7898   0.23993   0.23691  -0.0595  0.0265  1.0000  -1.9231   0.0000   0.3036
  20.000   0.7998   0.24847   0.24544  -0.0670  0.0239  1.0000  -1.7049   0.0000   0.3116
  20.500   0.8150   0.25542   0.25240  -0.0712  0.0223  1.0000  -1.6953   0.0000   0.3144
  21.000   0.8311   0.26164   0.25863  -0.0752  0.0212  1.0000  -1.7662   0.0000   0.3167
  21.500   0.8475   0.26751   0.26452  -0.0791  0.0204  1.0000  -1.8596   0.0000   0.3185
  22.000   0.8641   0.27321   0.27023  -0.0826  0.0198  1.0000  -1.9757   0.0000   0.3197
  22.500   0.8819   0.27944   0.27648  -0.0846  0.0192  1.0000  -2.1627   0.0000   0.3190
  23.000   0.8943   0.28972   0.28675  -0.0888  0.0188  1.0000  -2.1351   0.0000   0.3215
  23.500   0.9089   0.29658   0.29362  -0.0937  0.0187  1.0000  -2.1357   0.0000   0.3244
  24.000   0.9222   0.30295   0.30000  -0.0998  0.0185  1.0000  -2.0670   0.0000   0.3286
  24.500   0.9377   0.31016   0.30722  -0.1068  0.0156  1.0000  -1.8862   0.0000   0.3335
  25.000   0.9528   0.31656   0.31364  -0.1112  0.0139  1.0000  -1.9143   0.0000   0.3351
  25.500   0.9676   0.32247   0.31957  -0.1152  0.0131  1.0000  -1.9922   0.0000   0.3362
  26.000   0.9821   0.32855   0.32566  -0.1185  0.0126  1.0000  -2.1136   0.0000   0.3366
  26.500   0.9946   0.33967   0.33679  -0.1216  0.0121  1.0000  -2.0825   0.0000   0.3371
  27.000   1.0081   0.34723   0.34436  -0.1266  0.0121  1.0000  -2.0289   0.0000   0.3393
  27.500   1.0214   0.35459   0.35173  -0.1318  0.0121  1.0000  -1.9804   0.0000   0.3415
  28.000   1.0344   0.36176   0.35892  -0.1372  0.0120  1.0000  -1.9255   0.0000   0.3439
  28.500   1.0474   0.36883   0.36601  -0.1426  0.0119  1.0000  -1.8773   0.0000   0.3462
  29.000   1.0605   0.37588   0.37307  -0.1481  0.0118  1.0000  -1.8665   0.0000   0.3484
  29.500   1.0738   0.38303   0.38023  -0.1536  0.0117  1.0000  -1.8813   0.0000   0.3505
  30.000   1.0876   0.39049   0.38772  -0.1592  0.0111  1.0000  -1.8854   0.0000   0.3525
  30.500   1.1003   0.39788   0.39512  -0.1642  0.0098  1.0000  -1.9225   0.0000   0.3540
  31.000   1.1121   0.40497   0.40225  -0.1692  0.0090  1.0000  -1.9762   0.0000   0.3554
  31.500   1.1235   0.41187   0.40917  -0.1741  0.0084  1.0000  -2.0359   0.0000   0.3566
  32.000   1.1345   0.41847   0.41579  -0.1790  0.0078  1.0000  -2.1086   0.0000   0.3578
  32.500   1.1447   0.42472   0.42207  -0.1837  0.0074  1.0000  -2.2051   0.0000   0.3587
  33.000   1.1538   0.43150   0.42887  -0.1877  0.0071  1.0000  -2.3348   0.0000   0.3590
  33.500   1.1626   0.44309   0.44048  -0.1917  0.0068  1.0000  -2.2687   0.0000   0.3597
  34.000   1.1729   0.45062   0.44803  -0.1977  0.0068  1.0000  -2.1483   0.0000   0.3617
  34.500   1.1830   0.45823   0.45565  -0.2035  0.0067  1.0000  -2.0702   0.0000   0.3634
  35.000   1.1929   0.46581   0.46324  -0.2092  0.0067  1.0000  -2.0119   0.0000   0.3650
  35.500   1.2026   0.47341   0.47086  -0.2148  0.0066  1.0000  -1.9643   0.0000   0.3664
  36.000   1.2121   0.48109   0.47857  -0.2203  0.0065  1.0000  -1.9232   0.0000   0.3677
  36.500   1.2213   0.48883   0.48634  -0.2257  0.0062  1.0000  -1.8897   0.0000   0.3689
  37.000   1.2297   0.49656   0.49410  -0.2310  0.0058  1.0000  -1.8718   0.0000   0.3699
  37.500   1.2372   0.50404   0.50160  -0.2363  0.0054  1.0000  -1.8693   0.0000   0.3709
  38.000   1.2443   0.51136   0.50895  -0.2416  0.0050  1.0000  -1.8743   0.0000   0.3720
  38.500   1.2508   0.51858   0.51620  -0.2469  0.0047  1.0000  -1.9232   0.0000   0.3729
  39.000   1.2569   0.52571   0.52336  -0.2522  0.0044  1.0000  -1.9775   0.0000   0.3739
  39.500   1.2626   0.53266   0.53034  -0.2576  0.0041  1.0000  -2.0361   0.0000   0.3748
  40.000   1.2676   0.53933   0.53703  -0.2629  0.0038  1.0000  -2.1037   0.0000   0.3757
  40.500   1.2721   0.54572   0.54345  -0.2683  0.0036  1.0000  -2.1799   0.0000   0.3765
  41.000   1.2760   0.55204   0.54980  -0.2736  0.0034  1.0000  -2.2582   0.0000   0.3773
  41.500   1.2791   0.55835   0.55614  -0.2787  0.0033  1.0000  -2.3449   0.0000   0.3780
  42.000   1.2810   0.56580   0.56363  -0.2833  0.0032  1.0000  -2.4445   0.0000   0.3783


