xflr5 v6.50

 Calculated polar for: NACA 0012

 1 1 Reynolds number fixed          Mach number fixed         

 xtrf =   1.000 (top)        1.000 (bottom)
 Mach =   0.000     Re =     0.325 e 6     Ncrit =   9.000

  alpha     CL        CD       CDp       Cm    Top Xtr Bot Xtr   Cpmin    Chinge    XCp    
 ------- -------- --------- --------- -------- ------- ------- -------- --------- ---------
 -43.000  -1.2937   0.54975   0.54754   0.2949  1.0000  0.0031  -2.5023   0.0000   0.3793
 -42.500  -1.2925   0.54322   0.54098   0.2903  1.0000  0.0033  -2.4006   0.0000   0.3791
 -42.000  -1.2900   0.53818   0.53591   0.2851  1.0000  0.0035  -2.3167   0.0000   0.3784
 -41.500  -1.2866   0.53300   0.53069   0.2797  1.0000  0.0036  -2.2460   0.0000   0.3777
 -41.000  -1.2826   0.52755   0.52521   0.2742  1.0000  0.0039  -2.1837   0.0000   0.3769
 -40.500  -1.2780   0.52189   0.51952   0.2688  1.0000  0.0041  -2.1258   0.0000   0.3761
 -40.000  -1.2729   0.51613   0.51373   0.2634  1.0000  0.0045  -2.0671   0.0000   0.3752
 -39.500  -1.2674   0.51016   0.50773   0.2579  1.0000  0.0049  -2.0133   0.0000   0.3743
 -39.000  -1.2613   0.50398   0.50151   0.2525  1.0000  0.0053  -1.9643   0.0000   0.3734
 -38.500  -1.2547   0.49766   0.49517   0.2472  1.0000  0.0056  -1.9175   0.0000   0.3724
 -38.000  -1.2476   0.49116   0.48865   0.2418  1.0000  0.0060  -1.8861   0.0000   0.3714
 -37.500  -1.2397   0.48450   0.48196   0.2364  1.0000  0.0063  -1.9025   0.0000   0.3704
 -37.000  -1.2312   0.47785   0.47528   0.2309  1.0000  0.0065  -1.9279   0.0000   0.3693
 -36.500  -1.2224   0.47121   0.46861   0.2253  1.0000  0.0066  -1.9588   0.0000   0.3681
 -36.000  -1.2133   0.46463   0.46201   0.2197  1.0000  0.0067  -1.9946   0.0000   0.3668
 -35.500  -1.2040   0.45807   0.45543   0.2141  1.0000  0.0067  -2.0365   0.0000   0.3654
 -35.000  -1.1944   0.45150   0.44883   0.2083  1.0000  0.0068  -2.0878   0.0000   0.3639
 -34.500  -1.1846   0.44492   0.44223   0.2026  1.0000  0.0068  -2.1542   0.0000   0.3622
 -34.000  -1.1745   0.43834   0.43564   0.1967  1.0000  0.0068  -2.2492   0.0000   0.3604
 -33.500  -1.1654   0.42739   0.42469   0.1925  1.0000  0.0071  -2.3214   0.0000   0.3597
 -33.000  -1.1565   0.42095   0.41821   0.1886  1.0000  0.0074  -2.1933   0.0000   0.3595
 -32.500  -1.1465   0.41532   0.41255   0.1838  1.0000  0.0079  -2.1027   0.0000   0.3586
 -32.000  -1.1356   0.40929   0.40650   0.1789  1.0000  0.0086  -2.0417   0.0000   0.3575
 -31.500  -1.1243   0.40287   0.40006   0.1738  1.0000  0.0094  -1.9960   0.0000   0.3563
 -31.000  -1.1124   0.39620   0.39337   0.1688  1.0000  0.0104  -1.9575   0.0000   0.3549
 -30.500  -1.0991   0.38919   0.38633   0.1634  1.0000  0.0115  -1.9484   0.0000   0.3533
 -30.000  -1.0856   0.38278   0.37990   0.1576  1.0000  0.0118  -1.9544   0.0000   0.3511
 -29.500  -1.0729   0.37635   0.37344   0.1520  1.0000  0.0119  -1.9367   0.0000   0.3490
 -29.000  -1.0601   0.36989   0.36697   0.1466  1.0000  0.0120  -1.9164   0.0000   0.3469
 -28.500  -1.0474   0.36338   0.36044   0.1411  1.0000  0.0120  -1.9443   0.0000   0.3447
 -28.000  -1.0346   0.35677   0.35382   0.1357  1.0000  0.0121  -1.9940   0.0000   0.3424
 -27.500  -1.0213   0.34986   0.34688   0.1306  1.0000  0.0121  -2.0340   0.0000   0.3403
 -27.000  -1.0079   0.34274   0.33976   0.1255  1.0000  0.0121  -2.0802   0.0000   0.3381
 -26.500  -0.9948   0.33180   0.32881   0.1232  1.0000  0.0127  -2.0318   0.0000   0.3386
 -26.000  -0.9805   0.32592   0.32292   0.1194  1.0000  0.0132  -1.9343   0.0000   0.3379
 -25.500  -0.9659   0.32006   0.31703   0.1152  1.0000  0.0139  -1.8731   0.0000   0.3367
 -25.000  -0.9510   0.31383   0.31079   0.1108  1.0000  0.0153  -1.8488   0.0000   0.3350
 -24.500  -0.9352   0.30677   0.30373   0.1044  1.0000  0.0184  -2.0121   0.0000   0.3310
 -24.000  -0.9225   0.30112   0.29806   0.0975  1.0000  0.0187  -2.1539   0.0000   0.3260
 -23.500  -0.9082   0.29457   0.29150   0.0924  1.0000  0.0188  -2.1692   0.0000   0.3230
 -23.000  -0.8947   0.28411   0.28105   0.0890  1.0000  0.0193  -2.1639   0.0000   0.3215
 -22.500  -0.8769   0.27836   0.27527   0.0869  1.0000  0.0200  -1.9624   0.0000   0.3224
 -22.000  -0.8605   0.27293   0.26983   0.0833  1.0000  0.0209  -1.8455   0.0000   0.3212
 -21.500  -0.8443   0.26702   0.26391   0.0793  1.0000  0.0218  -1.7699   0.0000   0.3192
 -21.000  -0.8283   0.26089   0.25776   0.0750  1.0000  0.0230  -1.7090   0.0000   0.3168
 -20.500  -0.8126   0.25429   0.25115   0.0705  1.0000  0.0248  -1.6783   0.0000   0.3138
 -20.000  -0.8019   0.24690   0.24378   0.0627  1.0000  0.0266  -1.8911   0.0000   0.3058
 -19.500  -0.7897   0.23912   0.23600   0.0576  1.0000  0.0268  -1.9923   0.0000   0.3012
 -19.000  -0.7776   0.23057   0.22745   0.0530  1.0000  0.0269  -2.0989   0.0000   0.2971
 -18.500  -0.7630   0.22157   0.21845   0.0519  1.0000  0.0283  -2.0478   0.0000   0.2978
 -18.000  -0.7452   0.21632   0.21319   0.0498  1.0000  0.0302  -1.9349   0.0000   0.2974
 -17.500  -0.7374   0.20810   0.20498   0.0433  1.0000  0.0356  -2.0758   0.0000   0.2899
 -17.000  -0.7312   0.19907   0.19596   0.0370  1.0000  0.0363  -2.2295   0.0000   0.2823
 -16.500  -0.7230   0.18975   0.18664   0.0325  1.0000  0.0364  -2.2979   0.0000   0.2771
 -16.000  -0.7118   0.18200   0.17887   0.0320  1.0000  0.0383  -2.1737   0.0000   0.2779
 -15.500  -0.6940   0.17707   0.17393   0.0307  1.0000  0.0405  -2.0090   0.0000   0.2779
 -15.000  -0.9506   0.09391   0.09043  -0.0114  1.0000  0.0263  -5.6104   0.0000   0.2186
 -14.500  -1.0262   0.07226   0.06833  -0.0258  1.0000  0.0259  -6.1712   0.0000   0.2065
 -14.000  -1.0693   0.05906   0.05471  -0.0334  1.0000  0.0260  -6.3778   0.0000   0.2015
 -13.500  -1.0957   0.05015   0.04538  -0.0363  1.0000  0.0263  -6.4167   0.0000   0.2006
 -13.000  -1.1079   0.04434   0.03919  -0.0358  1.0000  0.0267  -6.3244   0.0000   0.2024
 -12.500  -1.1288   0.03750   0.03182  -0.0321  1.0000  0.0276  -6.3147   0.0000   0.2071
 -12.000  -1.1278   0.03279   0.02678  -0.0276  1.0000  0.0291  -6.1349   0.0000   0.2118
 -11.500  -1.1092   0.03036   0.02418  -0.0237  1.0000  0.0306  -5.8606   0.0000   0.2157
 -11.000  -1.0815   0.02808   0.02166  -0.0206  1.0000  0.0324  -5.5747   0.0000   0.2186
 -10.500  -1.0492   0.02592   0.01926  -0.0178  1.0000  0.0345  -5.2819   0.0000   0.2214
 -10.000  -1.0119   0.02433   0.01743  -0.0154  1.0000  0.0363  -4.9613   0.0000   0.2238
  -9.500  -0.9816   0.02145   0.01446  -0.0122  1.0000  0.0407  -4.6932   0.0000   0.2272
  -9.000  -0.9408   0.02033   0.01320  -0.0100  1.0000  0.0453  -4.3477   0.0000   0.2295
  -8.500  -0.9052   0.01847   0.01124  -0.0069  1.0000  0.0502  -4.0526   0.0000   0.2331
  -8.000  -0.8659   0.01730   0.01003  -0.0042  1.0000  0.0566  -3.7281   0.0000   0.2365
  -7.500  -0.8291   0.01596   0.00867  -0.0009  1.0000  0.0650  -3.4261   0.0000   0.2407
  -7.000  -0.7896   0.01495   0.00762   0.0019  1.0000  0.0772  -3.1102   0.0000   0.2447
  -6.500  -0.7502   0.01397   0.00673   0.0048  1.0000  0.0948  -2.8439   0.0000   0.2491
  -6.000  -0.7097   0.01313   0.00596   0.0075  1.0000  0.1198  -2.5914   0.0000   0.2538
  -5.500  -0.6695   0.01223   0.00530   0.0101  1.0000  0.1610  -2.3426   0.0000   0.2587
  -5.000  -0.6278   0.01148   0.00478   0.0124  1.0000  0.2151  -2.0921   0.0000   0.2637
  -4.500  -0.5847   0.01084   0.00443   0.0143  1.0000  0.2768  -1.8487   0.0000   0.2689
  -3.500  -0.4616   0.00984   0.00401   0.0106  0.9927  0.4227  -1.3783   0.0000   0.2681
  -3.000  -0.3841   0.00931   0.00379   0.0058  0.9823  0.5001  -1.1464   0.0000   0.2603
  -2.500  -0.3084   0.00885   0.00361   0.0017  0.9704  0.5713  -0.9484   0.0000   0.2507
  -2.000  -0.2316   0.00840   0.00344  -0.0025  0.9589  0.6394  -0.7822   0.0000   0.2347
  -1.500  -0.1630   0.00798   0.00324  -0.0045  0.9424  0.7005  -0.6531   0.0000   0.2179
  -1.000  -0.1055   0.00765   0.00310  -0.0038  0.9171  0.7545  -0.5556   0.0000   0.2093
  -0.500  -0.0519   0.00743   0.00300  -0.0021  0.8853  0.8038  -0.4786   0.0000   0.2043
   0.000  -0.0000   0.00736   0.00296   0.0000  0.8484  0.8484  -0.4144   0.0000   0.4813
   0.500   0.0519   0.00743   0.00300   0.0021  0.8038  0.8853  -0.4786   0.0000   0.2043
   1.000   0.1055   0.00765   0.00310   0.0038  0.7545  0.9171  -0.5556   0.0000   0.2093
   1.500   0.1630   0.00798   0.00324   0.0045  0.7005  0.9424  -0.6531   0.0000   0.2179
   2.000   0.2316   0.00840   0.00344   0.0025  0.6394  0.9590  -0.7821   0.0000   0.2347
   2.500   0.3084   0.00885   0.00360  -0.0017  0.5713  0.9704  -0.9483   0.0000   0.2507
   3.000   0.3841   0.00931   0.00379  -0.0058  0.5001  0.9823  -1.1465   0.0000   0.2603
   3.500   0.4616   0.00984   0.00401  -0.0106  0.4227  0.9927  -1.3782   0.0000   0.2681
   4.500   0.5846   0.01083   0.00443  -0.0143  0.2769  1.0000  -1.8483   0.0000   0.2689
   5.000   0.6276   0.01147   0.00478  -0.0123  0.2152  1.0000  -2.0917   0.0000   0.2637
   5.500   0.6694   0.01223   0.00530  -0.0101  0.1610  1.0000  -2.3423   0.0000   0.2587
   6.000   0.7096   0.01313   0.00596  -0.0075  0.1198  1.0000  -2.5911   0.0000   0.2537
   6.500   0.7501   0.01397   0.00673  -0.0048  0.0948  1.0000  -2.8436   0.0000   0.2491
   7.000   0.7895   0.01494   0.00762  -0.0019  0.0772  1.0000  -3.1100   0.0000   0.2447
   7.500   0.8290   0.01595   0.00867   0.0010  0.0650  1.0000  -3.4259   0.0000   0.2406
   8.000   0.8659   0.01730   0.01003   0.0042  0.0566  1.0000  -3.7280   0.0000   0.2364
   8.500   0.9052   0.01847   0.01124   0.0069  0.0502  1.0000  -4.0527   0.0000   0.2331
   9.000   0.9409   0.02032   0.01320   0.0100  0.0453  1.0000  -4.3481   0.0000   0.2296
   9.500   0.9817   0.02145   0.01446   0.0122  0.0407  1.0000  -4.6938   0.0000   0.2272
  10.000   1.0121   0.02433   0.01743   0.0154  0.0363  1.0000  -4.9622   0.0000   0.2238
  10.500   1.0495   0.02592   0.01926   0.0178  0.0345  1.0000  -5.2830   0.0000   0.2214
  11.000   1.0819   0.02808   0.02167   0.0206  0.0324  1.0000  -5.5762   0.0000   0.2187
  11.500   1.1097   0.03036   0.02418   0.0236  0.0306  1.0000  -5.8627   0.0000   0.2158
  12.000   1.1286   0.03280   0.02679   0.0275  0.0291  1.0000  -6.1386   0.0000   0.2120
  12.500   1.1294   0.03758   0.03190   0.0320  0.0275  1.0000  -6.3155   0.0000   0.2073
  13.000   1.1092   0.04434   0.03919   0.0356  0.0267  1.0000  -6.3307   0.0000   0.2026
  13.500   1.0972   0.05017   0.04540   0.0361  0.0263  1.0000  -6.4231   0.0000   0.2009
  14.000   1.0709   0.05911   0.05476   0.0330  0.0260  1.0000  -6.3840   0.0000   0.2019
  14.500   1.0279   0.07237   0.06846   0.0253  0.0259  1.0000  -6.1758   0.0000   0.2070
  15.000   0.9514   0.09433   0.09087   0.0106  0.0263  1.0000  -5.6032   0.0000   0.2194
  15.500   0.6966   0.17732   0.17418  -0.0311  0.0404  1.0000  -2.0159   0.0000   0.2784
  16.000   0.7147   0.18216   0.17903  -0.0324  0.0382  1.0000  -2.1884   0.0000   0.2782
  16.500   0.7252   0.19018   0.18706  -0.0330  0.0364  1.0000  -2.3001   0.0000   0.2777
  17.000   0.7333   0.19956   0.19645  -0.0375  0.0363  1.0000  -2.2309   0.0000   0.2828
  17.500   0.7367   0.20904   0.20592  -0.0450  0.0352  1.0000  -2.0189   0.0000   0.2924
  18.000   0.7474   0.21694   0.21382  -0.0503  0.0301  1.0000  -1.9393   0.0000   0.2979
  18.500   0.7653   0.22224   0.21912  -0.0524  0.0283  1.0000  -2.0552   0.0000   0.2981
  19.000   0.3011   0.07970   0.07723   0.0088  0.0362  1.0000  -0.8771   0.0000   0.2233
  19.500   0.3017   0.08445   0.08198   0.0037  0.0335  1.0000  -0.6890   0.0000   0.2408
  20.000   0.3174   0.09042   0.08795   0.0009  0.0295  1.0000  -0.6924   0.0000   0.2490
  20.500   0.3370   0.09645   0.09398  -0.0013  0.0279  1.0000  -0.7728   0.0000   0.2537
  21.000   0.3601   0.10731   0.10484  -0.0036  0.0269  1.0000  -0.8139   0.0000   0.2581
  21.500   0.3721   0.11440   0.11193  -0.0073  0.0267  1.0000  -0.7562   0.0000   0.2667
  22.000   0.3807   0.12058   0.11811  -0.0113  0.0264  1.0000  -0.6876   0.0000   0.2763
  22.500   0.3912   0.12690   0.12444  -0.0150  0.0245  1.0000  -0.6584   0.0000   0.2846
  23.000   0.4056   0.13426   0.13181  -0.0183  0.0228  1.0000  -0.6921   0.0000   0.2901
  23.500   0.4203   0.14155   0.13910  -0.0214  0.0214  1.0000  -0.7408   0.0000   0.2948
  24.000   0.4361   0.14846   0.14604  -0.0243  0.0199  1.0000  -0.8351   0.0000   0.2980
  24.500   0.4606   0.16144   0.15900  -0.0266  0.0188  1.0000  -0.9925   0.0000   0.2980
  25.000   0.4716   0.16937   0.16694  -0.0304  0.0187  1.0000  -0.9536   0.0000   0.3037
  25.500   0.4781   0.17591   0.17349  -0.0347  0.0183  1.0000  -0.8102   0.0000   0.3113
  26.000   0.4889   0.18359   0.18119  -0.0383  0.0159  1.0000  -0.7214   0.0000   0.3165
  26.500   0.5020   0.19197   0.18957  -0.0417  0.0144  1.0000  -0.7240   0.0000   0.3199
  27.000   0.5151   0.20018   0.19780  -0.0451  0.0135  1.0000  -0.7463   0.0000   0.3230
  27.500   0.5283   0.20846   0.20610  -0.0484  0.0129  1.0000  -0.7893   0.0000   0.3256
  28.000   0.5433   0.21808   0.21574  -0.0516  0.0124  1.0000  -0.8641   0.0000   0.3273
  28.500   0.5607   0.23234   0.22999  -0.0549  0.0121  1.0000  -0.8907   0.0000   0.3287
  29.000   0.5710   0.24128   0.23894  -0.0587  0.0121  1.0000  -0.8653   0.0000   0.3323
  29.500   0.5808   0.25006   0.24773  -0.0624  0.0121  1.0000  -0.8808   0.0000   0.3358
  30.000   0.5904   0.25872   0.25643  -0.0661  0.0120  1.0000  -0.8947   0.0000   0.3391
  30.500   0.5991   0.26692   0.26464  -0.0698  0.0119  1.0000  -0.9001   0.0000   0.3424
  31.000   0.6068   0.27425   0.27199  -0.0735  0.0117  1.0000  -0.8822   0.0000   0.3459
  31.500   0.6158   0.28267   0.28043  -0.0770  0.0107  1.0000  -0.8609   0.0000   0.3486
  32.000   0.6254   0.29184   0.28963  -0.0805  0.0091  1.0000  -0.8604   0.0000   0.3509
  32.500   0.6346   0.30060   0.29841  -0.0840  0.0080  1.0000  -0.8782   0.0000   0.3530
  33.000   0.6436   0.30917   0.30700  -0.0875  0.0074  1.0000  -0.9224   0.0000   0.3548
  33.500   0.6546   0.31988   0.31773  -0.0911  0.0070  1.0000  -1.0026   0.0000   0.3559


