xflr5 v6.50

 Calculated polar for: NACA 0012

 1 1 Reynolds number fixed          Mach number fixed         

 xtrf =   1.000 (top)        1.000 (bottom)
 Mach =   0.000     Re =     0.400 e 6     Ncrit =   9.000

  alpha     CL        CD       CDp       Cm    Top Xtr Bot Xtr   Cpmin    Chinge    XCp    
 ------- -------- --------- --------- -------- ------- ------- -------- --------- ---------
 -40.000  -1.2693   0.51232   0.51017   0.2628  1.0000  0.0032  -2.3008   0.0000   0.3745
 -39.500  -1.2651   0.50633   0.50415   0.2579  1.0000  0.0033  -2.1989   0.0000   0.3740
 -39.000  -1.2599   0.50079   0.49858   0.2527  1.0000  0.0034  -2.1113   0.0000   0.3732
 -38.500  -1.2541   0.49517   0.49294   0.2474  1.0000  0.0036  -2.0396   0.0000   0.3723
 -38.000  -1.2478   0.48942   0.48716   0.2421  1.0000  0.0037  -1.9943   0.0000   0.3714
 -37.500  -1.2409   0.48350   0.48122   0.2368  1.0000  0.0039  -1.9606   0.0000   0.3705
 -37.000  -1.2335   0.47739   0.47508   0.2314  1.0000  0.0042  -1.9345   0.0000   0.3695
 -36.500  -1.2257   0.47119   0.46885   0.2261  1.0000  0.0045  -1.9144   0.0000   0.3684
 -36.000  -1.2173   0.46480   0.46244   0.2208  1.0000  0.0049  -1.9008   0.0000   0.3674
 -35.500  -1.2085   0.45824   0.45586   0.2156  1.0000  0.0054  -1.8958   0.0000   0.3663
 -35.000  -1.1988   0.45128   0.44887   0.2103  1.0000  0.0061  -1.9127   0.0000   0.3652
 -34.500  -1.1879   0.44409   0.44167   0.2049  1.0000  0.0065  -1.9691   0.0000   0.3639
 -34.000  -1.1768   0.43703   0.43458   0.1992  1.0000  0.0066  -2.0389   0.0000   0.3624
 -33.500  -1.1657   0.43002   0.42755   0.1934  1.0000  0.0067  -2.1301   0.0000   0.3607
 -33.000  -1.1545   0.42309   0.42061   0.1873  1.0000  0.0068  -2.2720   0.0000   0.3585
 -32.500  -1.1436   0.41637   0.41387   0.1815  1.0000  0.0069  -2.3484   0.0000   0.3566
 -32.000  -1.1341   0.40592   0.40342   0.1775  1.0000  0.0071  -2.3446   0.0000   0.3559
 -31.500  -1.1238   0.39962   0.39709   0.1734  1.0000  0.0073  -2.2132   0.0000   0.3555
 -31.000  -1.1127   0.39385   0.39130   0.1688  1.0000  0.0076  -2.1045   0.0000   0.3545
 -30.500  -1.1011   0.38794   0.38536   0.1640  1.0000  0.0080  -2.0101   0.0000   0.3534
 -30.000  -1.0890   0.38193   0.37934   0.1591  1.0000  0.0086  -1.9217   0.0000   0.3522
 -29.500  -1.0765   0.37558   0.37296   0.1542  1.0000  0.0093  -1.8508   0.0000   0.3508
 -29.000  -1.0635   0.36892   0.36628   0.1493  1.0000  0.0100  -1.7944   0.0000   0.3493
 -28.500  -1.0500   0.36202   0.35937   0.1444  1.0000  0.0109  -1.7501   0.0000   0.3477
 -28.000  -1.0354   0.35487   0.35221   0.1390  1.0000  0.0116  -1.8062   0.0000   0.3456
 -27.500  -1.0211   0.34809   0.34540   0.1334  1.0000  0.0118  -1.8707   0.0000   0.3432
 -27.000  -1.0074   0.34134   0.33864   0.1279  1.0000  0.0120  -1.9326   0.0000   0.3407
 -26.500  -0.9938   0.33445   0.33174   0.1225  1.0000  0.0120  -2.0031   0.0000   0.3380
 -26.000  -0.9799   0.32733   0.32462   0.1174  1.0000  0.0121  -2.0668   0.0000   0.3357
 -25.500  -0.9660   0.31994   0.31721   0.1123  1.0000  0.0121  -2.1509   0.0000   0.3332
 -25.000  -0.9531   0.31023   0.30750   0.1096  1.0000  0.0128  -2.1447   0.0000   0.3331
 -24.500  -0.9377   0.30516   0.30242   0.1061  1.0000  0.0136  -2.0142   0.0000   0.3324
 -24.000  -0.9222   0.29952   0.29676   0.1019  1.0000  0.0151  -1.9447   0.0000   0.3310
 -23.500  -0.9063   0.29267   0.28989   0.0968  1.0000  0.0179  -1.9679   0.0000   0.3282
 -23.000  -0.8918   0.28629   0.28351   0.0901  1.0000  0.0186  -2.0629   0.0000   0.3233
 -22.500  -0.8776   0.27998   0.27719   0.0847  1.0000  0.0187  -2.0757   0.0000   0.3197
 -22.000  -0.8627   0.27339   0.27060   0.0798  1.0000  0.0188  -2.0645   0.0000   0.3166
 -21.500  -0.8476   0.26641   0.26361   0.0752  1.0000  0.0188  -2.0458   0.0000   0.3136
 -21.000  -0.8350   0.25656   0.25377   0.0720  1.0000  0.0195  -2.0272   0.0000   0.3119
 -20.500  -0.8174   0.25111   0.24829   0.0692  1.0000  0.0200  -1.9000   0.0000   0.3114
 -20.000  -0.8010   0.24529   0.24247   0.0659  1.0000  0.0207  -1.8316   0.0000   0.3099
 -19.500  -0.7856   0.23890   0.23607   0.0623  1.0000  0.0218  -1.7973   0.0000   0.3077
 -19.000  -0.7712   0.23186   0.22902   0.0583  1.0000  0.0237  -1.8053   0.0000   0.3048
 -18.500  -0.7633   0.22229   0.21947   0.0505  1.0000  0.0267  -2.0831   0.0000   0.2958
 -18.000  -0.7535   0.21283   0.21001   0.0456  1.0000  0.0269  -2.2612   0.0000   0.2906
 -15.500  -1.0898   0.07610   0.07234  -0.0207  1.0000  0.0208  -7.1589   0.0000   0.2105
 -15.000  -1.1245   0.06322   0.05912  -0.0282  1.0000  0.0210  -7.3065   0.0000   0.2055
 -14.500  -1.1431   0.05405   0.04967  -0.0328  1.0000  0.0215  -7.2770   0.0000   0.2030
 -14.000  -1.1520   0.04712   0.04249  -0.0352  1.0000  0.0222  -7.1484   0.0000   0.2022
 -13.500  -1.1559   0.04166   0.03676  -0.0355  1.0000  0.0231  -6.9749   0.0000   0.2030
 -13.000  -1.1560   0.03719   0.03199  -0.0338  1.0000  0.0241  -6.7776   0.0000   0.2054
 -12.500  -1.1492   0.03368   0.02818  -0.0307  1.0000  0.0253  -6.5349   0.0000   0.2088
 -12.000  -1.1348   0.03110   0.02533  -0.0268  1.0000  0.0263  -6.2376   0.0000   0.2127
 -11.500  -1.1121   0.02930   0.02329  -0.0230  1.0000  0.0269  -5.9414   0.0000   0.2164
 -11.000  -1.0973   0.02481   0.01847  -0.0186  1.0000  0.0291  -5.7786   0.0000   0.2207
 -10.500  -1.0647   0.02300   0.01655  -0.0158  1.0000  0.0311  -5.4484   0.0000   0.2235
 -10.000  -1.0278   0.02148   0.01489  -0.0133  1.0000  0.0337  -5.1100   0.0000   0.2260
  -9.500  -0.9872   0.02029   0.01354  -0.0111  1.0000  0.0361  -4.7600   0.0000   0.2283
  -9.000  -0.9542   0.01828   0.01144  -0.0079  1.0000  0.0410  -4.4605   0.0000   0.2320
  -8.500  -0.9124   0.01734   0.01042  -0.0056  1.0000  0.0457  -4.1076   0.0000   0.2346
  -8.000  -0.8764   0.01590   0.00893  -0.0023  1.0000  0.0517  -3.8008   0.0000   0.2387
  -7.500  -0.8350   0.01509   0.00806   0.0003  1.0000  0.0586  -3.4660   0.0000   0.2422
  -7.000  -0.7965   0.01403   0.00700   0.0034  1.0000  0.0700  -3.1515   0.0000   0.2465
  -6.500  -0.7561   0.01321   0.00622   0.0061  1.0000  0.0858  -2.8727   0.0000   0.2508
  -6.000  -0.7159   0.01235   0.00549   0.0088  1.0000  0.1096  -2.6179   0.0000   0.2556
  -5.500  -0.6744   0.01162   0.00493   0.0113  1.0000  0.1441  -2.3629   0.0000   0.2604
  -5.000  -0.6320   0.01093   0.00446   0.0134  1.0000  0.1937  -2.1086   0.0000   0.2653
  -4.500  -0.5844   0.01033   0.00413   0.0144  0.9993  0.2511  -1.8528   0.0000   0.2691
  -4.000  -0.5070   0.00968   0.00382   0.0093  0.9929  0.3301  -1.5773   0.0000   0.2630
  -3.500  -0.4326   0.00909   0.00355   0.0050  0.9838  0.4054  -1.3247   0.0000   0.2565
  -3.000  -0.3576   0.00859   0.00328   0.0008  0.9745  0.4782  -1.1060   0.0000   0.2473
  -2.500  -0.2807   0.00806   0.00306  -0.0036  0.9653  0.5483  -0.9124   0.0000   0.2322
  -2.000  -0.2157   0.00760   0.00285  -0.0051  0.9487  0.6116  -0.7645   0.0000   0.2213
  -1.500  -0.1568   0.00722   0.00265  -0.0051  0.9269  0.6697  -0.6471   0.0000   0.2128
  -1.000  -0.1030   0.00692   0.00251  -0.0038  0.8986  0.7241  -0.5536   0.0000   0.2086
  -0.500  -0.0515   0.00674   0.00243  -0.0019  0.8624  0.7748  -0.4784   0.0000   0.2081
   0.000   0.0000   0.00668   0.00239  -0.0000  0.8218  0.8218  -0.4146   0.0000   0.4643
   0.500   0.0515   0.00674   0.00243   0.0019  0.7748  0.8624  -0.4784   0.0000   0.2081
   1.000   0.1030   0.00692   0.00251   0.0038  0.7241  0.8986  -0.5536   0.0000   0.2086
   1.500   0.1568   0.00722   0.00265   0.0051  0.6697  0.9269  -0.6471   0.0000   0.2128
   2.000   0.2157   0.00760   0.00285   0.0051  0.6116  0.9487  -0.7645   0.0000   0.2213
   2.500   0.2807   0.00806   0.00306   0.0036  0.5483  0.9653  -0.9124   0.0000   0.2322
   3.000   0.3576   0.00859   0.00328  -0.0008  0.4782  0.9745  -1.1060   0.0000   0.2473
   3.500   0.4326   0.00909   0.00354  -0.0050  0.4054  0.9839  -1.3247   0.0000   0.2565
   4.000   0.5071   0.00968   0.00382  -0.0093  0.3301  0.9929  -1.5774   0.0000   0.2631
   4.500   0.5844   0.01033   0.00413  -0.0144  0.2511  0.9993  -1.8529   0.0000   0.2691
   5.000   0.6318   0.01093   0.00446  -0.0134  0.1938  1.0000  -2.1082   0.0000   0.2652
   5.500   0.6743   0.01161   0.00493  -0.0112  0.1442  1.0000  -2.3625   0.0000   0.2603
   6.000   0.7158   0.01235   0.00549  -0.0088  0.1097  1.0000  -2.6176   0.0000   0.2555
   6.500   0.7560   0.01321   0.00622  -0.0061  0.0858  1.0000  -2.8724   0.0000   0.2508
   7.000   0.7964   0.01403   0.00699  -0.0033  0.0700  1.0000  -3.1512   0.0000   0.2465
   7.500   0.8349   0.01509   0.00806  -0.0003  0.0586  1.0000  -3.4657   0.0000   0.2422
   8.000   0.8763   0.01590   0.00892   0.0023  0.0517  1.0000  -3.8007   0.0000   0.2387
   8.500   0.9124   0.01734   0.01041   0.0056  0.0457  1.0000  -4.1076   0.0000   0.2346
   9.000   0.9543   0.01828   0.01143   0.0078  0.0410  1.0000  -4.4608   0.0000   0.2320
   9.500   0.9873   0.02029   0.01354   0.0111  0.0361  1.0000  -4.7606   0.0000   0.2284
  10.000   1.0280   0.02148   0.01489   0.0133  0.0337  1.0000  -5.1108   0.0000   0.2261
  10.500   1.0650   0.02300   0.01655   0.0158  0.0311  1.0000  -5.4495   0.0000   0.2236
  11.000   1.0977   0.02481   0.01847   0.0185  0.0291  1.0000  -5.7801   0.0000   0.2208
  11.500   1.1126   0.02930   0.02329   0.0229  0.0269  1.0000  -5.9438   0.0000   0.2165
  12.000   1.1357   0.03111   0.02533   0.0266  0.0262  1.0000  -6.2416   0.0000   0.2129
  12.500   1.1502   0.03369   0.02819   0.0305  0.0252  1.0000  -6.5399   0.0000   0.2090
  13.000   1.1573   0.03720   0.03200   0.0336  0.0241  1.0000  -6.7835   0.0000   0.2056
  13.500   1.1575   0.04165   0.03675   0.0353  0.0231  1.0000  -6.9830   0.0000   0.2033
  14.000   1.1540   0.04708   0.04245   0.0349  0.0222  1.0000  -7.1598   0.0000   0.2025
  14.500   1.1456   0.05398   0.04960   0.0325  0.0215  1.0000  -7.2917   0.0000   0.2034
  15.000   1.1274   0.06313   0.05903   0.0278  0.0210  1.0000  -7.3240   0.0000   0.2059
  15.500   1.0931   0.07600   0.07223   0.0203  0.0208  1.0000  -7.1786   0.0000   0.2109
  17.000   0.2296   0.05301   0.05081   0.0190  0.0385  1.0000  -0.7271   0.0000   0.1760
  17.500   0.2521   0.05758   0.05539   0.0177  0.0373  1.0000  -0.8548   0.0000   0.1859
  18.000   0.7555   0.21351   0.21069  -0.0461  0.0269  1.0000  -2.2591   0.0000   0.2912
  18.500   0.7653   0.22306   0.22024  -0.0511  0.0267  1.0000  -2.0811   0.0000   0.2964
  19.000   0.7731   0.23276   0.22993  -0.0588  0.0236  1.0000  -1.8059   0.0000   0.3053
  19.500   0.7875   0.23991   0.23708  -0.0628  0.0218  1.0000  -1.7994   0.0000   0.3082
  20.000   0.8029   0.24642   0.24360  -0.0664  0.0207  1.0000  -1.8343   0.0000   0.3103
  20.500   0.8191   0.25243   0.24961  -0.0697  0.0200  1.0000  -1.9030   0.0000   0.3118
  21.000   0.8366   0.25806   0.25528  -0.0725  0.0195  1.0000  -2.0323   0.0000   0.3123
  21.500   0.8490   0.26816   0.26536  -0.0757  0.0188  1.0000  -2.0466   0.0000   0.3140
  22.000   0.8640   0.27534   0.27255  -0.0803  0.0188  1.0000  -2.0649   0.0000   0.3170
  22.500   0.8789   0.28215   0.27937  -0.0852  0.0187  1.0000  -2.0758   0.0000   0.3201
  23.000   0.8931   0.28873   0.28595  -0.0906  0.0186  1.0000  -2.0615   0.0000   0.3237
  23.500   0.9077   0.29548   0.29270  -0.0974  0.0178  1.0000  -1.9602   0.0000   0.3288
  24.000   0.9235   0.30255   0.29979  -0.1024  0.0151  1.0000  -1.9451   0.0000   0.3314
  24.500   0.9389   0.30842   0.30568  -0.1065  0.0136  1.0000  -2.0164   0.0000   0.3328
  25.000   0.9542   0.31373   0.31101  -0.1101  0.0128  1.0000  -2.1485   0.0000   0.3334
  25.500   0.9668   0.32381   0.32109  -0.1128  0.0121  1.0000  -2.1454   0.0000   0.3336
  26.000   0.9807   0.33157   0.32886  -0.1178  0.0121  1.0000  -2.0621   0.0000   0.3361
  26.500   0.9944   0.33907   0.33637  -0.1229  0.0120  1.0000  -1.9978   0.0000   0.3385
  27.000   1.0079   0.34637   0.34367  -0.1284  0.0119  1.0000  -1.9275   0.0000   0.3411
  27.500   1.0216   0.35359   0.35090  -0.1338  0.0118  1.0000  -1.8655   0.0000   0.3436
  28.000   1.0357   0.36085   0.35819  -0.1394  0.0116  1.0000  -1.8004   0.0000   0.3460
  28.500   1.0503   0.36849   0.36585  -0.1448  0.0108  1.0000  -1.7481   0.0000   0.3481
  29.000   1.0636   0.37586   0.37323  -0.1497  0.0100  1.0000  -1.7926   0.0000   0.3497
  29.500   1.0764   0.38301   0.38040  -0.1546  0.0093  1.0000  -1.8490   0.0000   0.3512
  30.000   1.0887   0.38986   0.38727  -0.1594  0.0086  1.0000  -1.9202   0.0000   0.3525
  30.500   1.1006   0.39637   0.39380  -0.1643  0.0080  1.0000  -2.0086   0.0000   0.3538
  31.000   1.1121   0.40282   0.40028  -0.1690  0.0076  1.0000  -2.1024   0.0000   0.3549
  31.500   1.1229   0.40913   0.40661  -0.1736  0.0073  1.0000  -2.2112   0.0000   0.3559
  32.000   1.1329   0.41605   0.41356  -0.1776  0.0071  1.0000  -2.3429   0.0000   0.3563
  32.500   1.1422   0.42708   0.42459  -0.1816  0.0069  1.0000  -2.3380   0.0000   0.3570
  33.000   1.1529   0.43458   0.43211  -0.1875  0.0068  1.0000  -2.2532   0.0000   0.3590
  33.500   1.1639   0.44239   0.43993  -0.1935  0.0067  1.0000  -2.1139   0.0000   0.3611
  34.000   1.1749   0.45022   0.44779  -0.1993  0.0066  1.0000  -2.0246   0.0000   0.3628
  34.500   1.1857   0.45812   0.45570  -0.2049  0.0065  1.0000  -1.9552   0.0000   0.3644
  35.000   1.1965   0.46614   0.46375  -0.2103  0.0061  1.0000  -1.9001   0.0000   0.3656
  35.500   1.2059   0.47391   0.47154  -0.2155  0.0054  1.0000  -1.8845   0.0000   0.3668
  36.000   1.2144   0.48131   0.47896  -0.2207  0.0049  1.0000  -1.8894   0.0000   0.3678
  36.500   1.2225   0.48856   0.48623  -0.2260  0.0045  1.0000  -1.9028   0.0000   0.3689
  37.000   1.2301   0.49567   0.49338  -0.2312  0.0042  1.0000  -1.9224   0.0000   0.3699
  37.500   1.2372   0.50265   0.50038  -0.2365  0.0039  1.0000  -1.9480   0.0000   0.3709
  38.000   1.2439   0.50949   0.50724  -0.2418  0.0037  1.0000  -1.9818   0.0000   0.3719
  38.500   1.2500   0.51618   0.51396  -0.2470  0.0036  1.0000  -2.0264   0.0000   0.3728
  39.000   1.2556   0.52274   0.52054  -0.2523  0.0034  1.0000  -2.1018   0.0000   0.3737
  39.500   1.2605   0.52925   0.52708  -0.2574  0.0033  1.0000  -2.1890   0.0000   0.3745
  40.000   1.2642   0.53630   0.53416  -0.2621  0.0032  1.0000  -2.2918   0.0000   0.3750


