xflr5 v6.50

 Calculated polar for: NACA 0012

 1 1 Reynolds number fixed          Mach number fixed         

 xtrf =   1.000 (top)        1.000 (bottom)
 Mach =   0.000     Re =     0.300 e 6     Ncrit =   9.000

  alpha     CL        CD       CDp       Cm    Top Xtr Bot Xtr   Cpmin    Chinge    XCp    
 ------- -------- --------- --------- -------- ------- ------- -------- --------- ---------
 -52.000  -0.6709   0.54015   0.53895   0.1994  1.0000  0.0008  -0.8011   0.0000   0.4209
 -51.500  -0.6773   0.53997   0.53873   0.1973  1.0000  0.0009  -0.7825   0.0000   0.4192
 -51.000  -0.6836   0.54039   0.53913   0.1952  1.0000  0.0010  -0.7758   0.0000   0.4175
 -50.500  -0.6896   0.54025   0.53896   0.1931  1.0000  0.0012  -0.7771   0.0000   0.4158
 -50.000  -0.6951   0.53934   0.53802   0.1909  1.0000  0.0015  -0.7857   0.0000   0.4141
 -49.500  -0.7002   0.53764   0.53629   0.1888  1.0000  0.0019  -0.8011   0.0000   0.4125
 -49.000  -0.7048   0.53524   0.53385   0.1866  1.0000  0.0024  -0.8206   0.0000   0.4110
 -48.500  -0.7090   0.53249   0.53107   0.1843  1.0000  0.0027  -0.8360   0.0000   0.4094
 -48.000  -0.7131   0.52964   0.52820   0.1820  1.0000  0.0028  -0.8417   0.0000   0.4079
 -47.500  -0.7169   0.52658   0.52509   0.1797  1.0000  0.0028  -0.8400   0.0000   0.4063
 -47.000  -0.7203   0.52330   0.52178   0.1773  1.0000  0.0029  -0.8352   0.0000   0.4047
 -46.500  -0.7236   0.51971   0.51816   0.1748  1.0000  0.0029  -0.8272   0.0000   0.4030
 -46.000  -0.7265   0.51575   0.51417   0.1723  1.0000  0.0029  -0.8166   0.0000   0.4014
 -45.500  -0.7291   0.51148   0.50987   0.1697  1.0000  0.0030  -0.8052   0.0000   0.3997
 -45.000  -0.7313   0.50690   0.50526   0.1671  1.0000  0.0030  -0.8211   0.0000   0.3980
 -44.500  -0.7333   0.50202   0.50034   0.1644  1.0000  0.0030  -0.8487   0.0000   0.3963
 -44.000  -0.7350   0.49683   0.49513   0.1617  1.0000  0.0030  -0.8805   0.0000   0.3945
 -43.500  -1.2980   0.55521   0.55294   0.3009  1.0000  0.0032  -2.4354   0.0000   0.3804
 -43.000  -1.2967   0.55013   0.54783   0.2959  1.0000  0.0034  -2.3474   0.0000   0.3799
 -42.500  -1.2943   0.54519   0.54286   0.2905  1.0000  0.0036  -2.2796   0.0000   0.3793
 -42.000  -1.2911   0.53990   0.53754   0.2850  1.0000  0.0039  -2.2258   0.0000   0.3785
 -41.500  -1.2872   0.53433   0.53193   0.2796  1.0000  0.0043  -2.1789   0.0000   0.3777
 -41.000  -1.2829   0.52855   0.52611   0.2741  1.0000  0.0046  -2.1343   0.0000   0.3769
 -40.500  -1.2781   0.52261   0.52015   0.2687  1.0000  0.0050  -2.0898   0.0000   0.3760
 -40.000  -1.2727   0.51654   0.51405   0.2632  1.0000  0.0056  -2.0451   0.0000   0.3752
 -39.500  -1.2667   0.51025   0.50772   0.2578  1.0000  0.0060  -2.0060   0.0000   0.3743
 -39.000  -1.2602   0.50382   0.50126   0.2524  1.0000  0.0063  -1.9698   0.0000   0.3733
 -38.500  -1.2531   0.49734   0.49475   0.2469  1.0000  0.0064  -1.9356   0.0000   0.3723
 -38.000  -1.2455   0.49088   0.48826   0.2414  1.0000  0.0065  -1.9334   0.0000   0.3713
 -37.500  -1.2376   0.48444   0.48179   0.2358  1.0000  0.0066  -1.9577   0.0000   0.3701
 -37.000  -1.2294   0.47804   0.47536   0.2301  1.0000  0.0067  -1.9859   0.0000   0.3689
 -36.500  -1.2209   0.47165   0.46895   0.2245  1.0000  0.0067  -2.0185   0.0000   0.3675
 -36.000  -1.2121   0.46526   0.46253   0.2188  1.0000  0.0068  -2.0569   0.0000   0.3661
 -35.500  -1.2030   0.45886   0.45611   0.2131  1.0000  0.0068  -2.1035   0.0000   0.3647
 -35.000  -1.1936   0.45244   0.44968   0.2073  1.0000  0.0068  -2.1624   0.0000   0.3630
 -34.500  -1.1840   0.44601   0.44323   0.2014  1.0000  0.0069  -2.2419   0.0000   0.3613
 -34.000  -1.1754   0.43467   0.43188   0.1976  1.0000  0.0071  -2.2704   0.0000   0.3610
 -33.500  -1.1668   0.42817   0.42534   0.1936  1.0000  0.0074  -2.1551   0.0000   0.3607
 -33.000  -1.1571   0.42247   0.41962   0.1888  1.0000  0.0079  -2.0757   0.0000   0.3599
 -32.500  -1.1466   0.41641   0.41353   0.1838  1.0000  0.0087  -2.0286   0.0000   0.3588
 -32.000  -1.1354   0.40988   0.40698   0.1788  1.0000  0.0098  -2.0025   0.0000   0.3576
 -31.500  -1.1234   0.40296   0.40003   0.1736  1.0000  0.0111  -1.9919   0.0000   0.3562
 -31.000  -1.1101   0.39612   0.39317   0.1679  1.0000  0.0117  -2.0083   0.0000   0.3543
 -30.500  -1.0973   0.39018   0.38720   0.1619  1.0000  0.0119  -2.0199   0.0000   0.3520
 -30.000  -1.0851   0.38398   0.38098   0.1562  1.0000  0.0120  -2.0066   0.0000   0.3499
 -29.500  -1.0728   0.37761   0.37459   0.1507  1.0000  0.0120  -1.9869   0.0000   0.3478
 -29.000  -1.0604   0.37117   0.36814   0.1453  1.0000  0.0121  -1.9675   0.0000   0.3456
 -28.500  -1.0478   0.36456   0.36151   0.1399  1.0000  0.0121  -2.0085   0.0000   0.3435
 -28.000  -1.0348   0.35765   0.35459   0.1348  1.0000  0.0121  -2.0443   0.0000   0.3414
 -27.500  -1.0220   0.34605   0.34297   0.1319  1.0000  0.0125  -2.0328   0.0000   0.3414
 -27.000  -1.0083   0.33951   0.33641   0.1284  1.0000  0.0129  -1.9309   0.0000   0.3411
 -26.500  -0.9943   0.33354   0.33042   0.1243  1.0000  0.0134  -1.8620   0.0000   0.3401
 -26.000  -0.9800   0.32741   0.32427   0.1199  1.0000  0.0142  -1.8210   0.0000   0.3386
 -25.500  -0.9653   0.32098   0.31783   0.1154  1.0000  0.0154  -1.8079   0.0000   0.3370
 -25.000  -0.9497   0.31376   0.31060   0.1100  1.0000  0.0180  -1.8935   0.0000   0.3343
 -24.500  -0.9369   0.30837   0.30521   0.1019  1.0000  0.0187  -2.1422   0.0000   0.3281
 -24.000  -0.9232   0.30200   0.29882   0.0965  1.0000  0.0188  -2.1955   0.0000   0.3248
 -23.500  -0.9086   0.29097   0.28778   0.0939  1.0000  0.0193  -2.1518   0.0000   0.3245
 -23.000  -0.8916   0.28525   0.28205   0.0915  1.0000  0.0201  -1.9706   0.0000   0.3250
 -22.500  -0.8752   0.27994   0.27672   0.0878  1.0000  0.0213  -1.8476   0.0000   0.3239
 -22.000  -0.8593   0.27396   0.27073   0.0837  1.0000  0.0226  -1.7785   0.0000   0.3218
 -21.500  -0.8434   0.26760   0.26436   0.0793  1.0000  0.0240  -1.7341   0.0000   0.3194
 -21.000  -0.8282   0.26082   0.25756   0.0734  1.0000  0.0261  -1.7684   0.0000   0.3148
 -20.500  -0.8169   0.25482   0.25157   0.0663  1.0000  0.0267  -1.8798   0.0000   0.3080
 -20.000  -0.8039   0.24734   0.24409   0.0613  1.0000  0.0268  -1.9608   0.0000   0.3038
 -19.500  -0.7911   0.23910   0.23585   0.0567  1.0000  0.0269  -2.0474   0.0000   0.2999
 -19.000  -0.7748   0.22983   0.22658   0.0560  1.0000  0.0283  -1.9658   0.0000   0.3013
 -18.500  -0.7574   0.22422   0.22096   0.0536  1.0000  0.0298  -1.8732   0.0000   0.3008
 -18.000  -0.7431   0.21740   0.21414   0.0499  1.0000  0.0333  -1.8772   0.0000   0.2979
 -17.500  -0.7421   0.20789   0.20465   0.0407  1.0000  0.0363  -2.1926   0.0000   0.2859
 -17.000  -0.7387   0.19613   0.19291   0.0363  1.0000  0.0370  -2.3275   0.0000   0.2807
 -16.500  -0.7181   0.19095   0.18769   0.0361  1.0000  0.0382  -2.1211   0.0000   0.2826
 -16.000  -0.6997   0.18603   0.18276   0.0346  1.0000  0.0408  -1.9562   0.0000   0.2827
 -15.000  -0.9480   0.09412   0.09051  -0.0125  1.0000  0.0273  -5.5734   0.0000   0.2174
 -14.500  -0.9930   0.07789   0.07394  -0.0238  1.0000  0.0271  -5.8646   0.0000   0.2077
 -13.500  -1.0842   0.05233   0.04748  -0.0366  1.0000  0.0272  -6.2979   0.0000   0.2000
 -13.000  -1.1215   0.04305   0.03766  -0.0357  1.0000  0.0279  -6.4155   0.0000   0.2029
 -12.500  -1.1274   0.03791   0.03221  -0.0325  1.0000  0.0291  -6.2730   0.0000   0.2068
 -12.000  -1.1186   0.03486   0.02896  -0.0285  1.0000  0.0304  -6.0103   0.0000   0.2109
 -11.500  -1.1020   0.03219   0.02603  -0.0244  1.0000  0.0319  -5.7557   0.0000   0.2149
 -11.000  -1.0761   0.02953   0.02305  -0.0212  1.0000  0.0338  -5.5010   0.0000   0.2180
 -10.500  -1.0440   0.02728   0.02051  -0.0184  1.0000  0.0356  -5.2189   0.0000   0.2208
 -10.000  -1.0136   0.02403   0.01701  -0.0154  1.0000  0.0384  -4.9737   0.0000   0.2238
  -9.500  -0.9768   0.02245   0.01538  -0.0130  1.0000  0.0425  -4.6389   0.0000   0.2263
  -9.000  -0.9358   0.02130   0.01402  -0.0108  1.0000  0.0467  -4.3037   0.0000   0.2287
  -8.500  -0.9018   0.01906   0.01175  -0.0076  1.0000  0.0522  -4.0208   0.0000   0.2324
  -8.000  -0.8613   0.01797   0.01054  -0.0050  1.0000  0.0584  -3.6974   0.0000   0.2355
  -7.500  -0.8255   0.01647   0.00906  -0.0016  1.0000  0.0674  -3.4015   0.0000   0.2398
  -7.000  -0.7868   0.01535   0.00794   0.0013  1.0000  0.0804  -3.0912   0.0000   0.2439
  -6.500  -0.7475   0.01434   0.00698   0.0042  1.0000  0.0983  -2.8306   0.0000   0.2484
  -6.000  -0.7080   0.01337   0.00612   0.0071  1.0000  0.1253  -2.5833   0.0000   0.2532
  -5.500  -0.6678   0.01247   0.00547   0.0096  1.0000  0.1682  -2.3349   0.0000   0.2581
  -5.000  -0.6262   0.01171   0.00492   0.0119  1.0000  0.2229  -2.0856   0.0000   0.2631
  -4.500  -0.5834   0.01106   0.00456   0.0140  1.0000  0.2878  -1.8432   0.0000   0.2684
  -4.000  -0.5388   0.01054   0.00433   0.0156  1.0000  0.3536  -1.6366   0.0000   0.2737
  -3.500  -0.4763   0.01009   0.00417   0.0136  0.9957  0.4280  -1.4056   0.0000   0.2736
  -3.000  -0.3973   0.00963   0.00398   0.0084  0.9853  0.5069  -1.1668   0.0000   0.2664
  -2.500  -0.3198   0.00917   0.00384   0.0038  0.9738  0.5806  -0.9631   0.0000   0.2573
  -2.000  -0.2373   0.00875   0.00368  -0.0016  0.9640  0.6509  -0.7884   0.0000   0.2388
  -1.500  -0.1681   0.00834   0.00349  -0.0037  0.9467  0.7120  -0.6581   0.0000   0.2236
  -1.000  -0.1062   0.00799   0.00335  -0.0039  0.9247  0.7667  -0.5561   0.0000   0.2088
  -0.500  -0.0524   0.00777   0.00328  -0.0021  0.8941  0.8149  -0.4788   0.0000   0.2043
   0.000   0.0000   0.00769   0.00324  -0.0000  0.8574  0.8574  -0.4142   0.0000   0.5551
   0.500   0.0524   0.00777   0.00328   0.0021  0.8149  0.8941  -0.4788   0.0000   0.2043
   1.000   0.1062   0.00799   0.00335   0.0039  0.7667  0.9247  -0.5561   0.0000   0.2088
   1.500   0.1681   0.00834   0.00349   0.0037  0.7120  0.9467  -0.6581   0.0000   0.2235
   2.000   0.2373   0.00874   0.00368   0.0016  0.6509  0.9640  -0.7884   0.0000   0.2388
   2.500   0.3198   0.00916   0.00384  -0.0038  0.5806  0.9738  -0.9631   0.0000   0.2573
   3.000   0.3973   0.00963   0.00397  -0.0084  0.5069  0.9854  -1.1668   0.0000   0.2664
   3.500   0.4763   0.01009   0.00417  -0.0136  0.4280  0.9958  -1.4056   0.0000   0.2736
   4.000   0.5387   0.01054   0.00433  -0.0156  0.3537  1.0000  -1.6363   0.0000   0.2737
   4.500   0.5832   0.01106   0.00456  -0.0139  0.2879  1.0000  -1.8428   0.0000   0.2683
   5.000   0.6260   0.01171   0.00492  -0.0119  0.2230  1.0000  -2.0853   0.0000   0.2631
   5.500   0.6677   0.01247   0.00546  -0.0096  0.1683  1.0000  -2.3346   0.0000   0.2580
   6.000   0.7079   0.01337   0.00612  -0.0070  0.1253  1.0000  -2.5830   0.0000   0.2531
   6.500   0.7474   0.01434   0.00697  -0.0042  0.0983  1.0000  -2.8303   0.0000   0.2484
   7.000   0.7867   0.01535   0.00794  -0.0013  0.0804  1.0000  -3.0909   0.0000   0.2439
   7.500   0.8254   0.01646   0.00906   0.0017  0.0674  1.0000  -3.4013   0.0000   0.2398
   8.000   0.8613   0.01796   0.01054   0.0050  0.0584  1.0000  -3.6973   0.0000   0.2355
   8.500   0.9018   0.01906   0.01175   0.0075  0.0522  1.0000  -4.0209   0.0000   0.2324
   9.000   0.9359   0.02130   0.01402   0.0108  0.0467  1.0000  -4.3041   0.0000   0.2287
   9.500   0.9769   0.02245   0.01538   0.0129  0.0425  1.0000  -4.6395   0.0000   0.2264
  10.000   1.0139   0.02403   0.01701   0.0153  0.0384  1.0000  -4.9744   0.0000   0.2239
  10.500   1.0443   0.02728   0.02051   0.0184  0.0356  1.0000  -5.2201   0.0000   0.2208
  11.000   1.0765   0.02954   0.02306   0.0211  0.0338  1.0000  -5.5024   0.0000   0.2181
  11.500   1.1026   0.03219   0.02603   0.0243  0.0319  1.0000  -5.7577   0.0000   0.2150
  12.000   1.1194   0.03487   0.02897   0.0283  0.0304  1.0000  -6.0141   0.0000   0.2111
  12.500   1.1284   0.03792   0.03222   0.0323  0.0291  1.0000  -6.2778   0.0000   0.2070
  13.000   1.1223   0.04312   0.03773   0.0355  0.0279  1.0000  -6.4179   0.0000   0.2031
  13.500   1.0846   0.05250   0.04766   0.0363  0.0272  1.0000  -6.2952   0.0000   0.2003
  14.500   0.9936   0.07820   0.07427   0.0232  0.0271  1.0000  -5.8594   0.0000   0.2083
  15.000   0.9487   0.09454   0.09094   0.0118  0.0273  1.0000  -5.5658   0.0000   0.2182
  15.500   0.6962   0.17806   0.17480  -0.0303  0.0452  1.0000  -2.0039   0.0000   0.2772
  16.000   0.7022   0.18634   0.18307  -0.0351  0.0407  1.0000  -1.9631   0.0000   0.2832
  16.500   0.7207   0.19124   0.18798  -0.0365  0.0382  1.0000  -2.1320   0.0000   0.2830
  17.000   0.7412   0.19652   0.19330  -0.0367  0.0370  1.0000  -2.3381   0.0000   0.2810
  17.500   0.7441   0.20845   0.20521  -0.0412  0.0363  1.0000  -2.1929   0.0000   0.2865
  18.000   0.7451   0.21810   0.21484  -0.0505  0.0331  1.0000  -1.8765   0.0000   0.2985
  18.500   0.7595   0.22495   0.22170  -0.0541  0.0297  1.0000  -1.8769   0.0000   0.3012
  19.000   0.7769   0.23064   0.22739  -0.0564  0.0282  1.0000  -1.9715   0.0000   0.3017
  19.500   0.7928   0.24009   0.23684  -0.0572  0.0269  1.0000  -2.0464   0.0000   0.3004
  20.000   0.8055   0.24846   0.24521  -0.0618  0.0268  1.0000  -1.9598   0.0000   0.3043
  20.500   0.8183   0.25614   0.25289  -0.0667  0.0267  1.0000  -1.8776   0.0000   0.3084
  21.000   0.8296   0.26244   0.25918  -0.0740  0.0261  1.0000  -1.7646   0.0000   0.3153
  21.500   0.8450   0.26946   0.26623  -0.0798  0.0239  1.0000  -1.7353   0.0000   0.3198
  22.000   0.8608   0.27603   0.27280  -0.0842  0.0226  1.0000  -1.7801   0.0000   0.3222
  22.500   0.8767   0.28220   0.27899  -0.0883  0.0213  1.0000  -1.8503   0.0000   0.3242
  23.000   0.8930   0.28770   0.28450  -0.0919  0.0201  1.0000  -1.9751   0.0000   0.3253
  23.500   0.9100   0.29365   0.29047  -0.0943  0.0193  1.0000  -2.1567   0.0000   0.3248
  24.000   0.9242   0.30488   0.30171  -0.0970  0.0188  1.0000  -2.1936   0.0000   0.3252
  24.500   0.9378   0.31155   0.30840  -0.1024  0.0187  1.0000  -2.1367   0.0000   0.3286
  25.000   0.9509   0.31748   0.31433  -0.1107  0.0179  1.0000  -1.8762   0.0000   0.3349
  25.500   0.9663   0.32500   0.32186  -0.1158  0.0153  1.0000  -1.8059   0.0000   0.3374
  26.000   0.9808   0.33177   0.32864  -0.1204  0.0142  1.0000  -1.8196   0.0000   0.3390
  26.500   0.9951   0.33824   0.33512  -0.1247  0.0134  1.0000  -1.8610   0.0000   0.3404
  27.000   1.0090   0.34456   0.34147  -0.1289  0.0129  1.0000  -1.9304   0.0000   0.3415
  27.500   1.0224   0.35149   0.34842  -0.1323  0.0125  1.0000  -2.0327   0.0000   0.3418
  28.000   1.0348   0.36343   0.36037  -0.1351  0.0121  1.0000  -2.0388   0.0000   0.3418
  28.500   1.0477   0.37080   0.36776  -0.1403  0.0121  1.0000  -2.0029   0.0000   0.3439
  29.000   1.0601   0.37792   0.37490  -0.1456  0.0121  1.0000  -1.9639   0.0000   0.3460
  29.500   1.0724   0.38490   0.38189  -0.1510  0.0120  1.0000  -1.9831   0.0000   0.3482
  30.000   1.0845   0.39184   0.38884  -0.1565  0.0120  1.0000  -2.0024   0.0000   0.3503
  30.500   1.0967   0.39862   0.39564  -0.1622  0.0119  1.0000  -2.0145   0.0000   0.3524
  31.000   1.1094   0.40522   0.40228  -0.1682  0.0117  1.0000  -2.0013   0.0000   0.3548
  31.500   1.1225   0.41276   0.40984  -0.1738  0.0110  1.0000  -1.9851   0.0000   0.3566
  32.000   1.1343   0.42028   0.41738  -0.1790  0.0098  1.0000  -1.9960   0.0000   0.3580
  32.500   1.1452   0.42743   0.42456  -0.1840  0.0087  1.0000  -2.0219   0.0000   0.3592
  33.000   1.1555   0.43412   0.43128  -0.1889  0.0079  1.0000  -2.0698   0.0000   0.3603
  33.500   1.1650   0.44046   0.43764  -0.1936  0.0074  1.0000  -2.1502   0.0000   0.3611
  34.000   1.1732   0.44777   0.44499  -0.1976  0.0071  1.0000  -2.2665   0.0000   0.3613
  34.500   1.1815   0.45970   0.45692  -0.2014  0.0069  1.0000  -2.2246   0.0000   0.3617
  35.000   1.1909   0.46703   0.46427  -0.2072  0.0068  1.0000  -2.1464   0.0000   0.3635
  35.500   1.2001   0.47436   0.47162  -0.2130  0.0068  1.0000  -2.0881   0.0000   0.3651
  36.000   1.2089   0.48168   0.47896  -0.2186  0.0068  1.0000  -2.0418   0.0000   0.3666
  36.500   1.2175   0.48899   0.48631  -0.2243  0.0067  1.0000  -2.0034   0.0000   0.3680
  37.000   1.2258   0.49635   0.49369  -0.2299  0.0067  1.0000  -1.9708   0.0000   0.3694
  37.500   1.2338   0.50373   0.50109  -0.2355  0.0066  1.0000  -1.9425   0.0000   0.3706
  38.000   1.2415   0.51114   0.50853  -0.2410  0.0065  1.0000  -1.9180   0.0000   0.3718
  38.500   1.2488   0.51862   0.51604  -0.2465  0.0064  1.0000  -1.9253   0.0000   0.3728
  39.000   1.2557   0.52612   0.52357  -0.2519  0.0063  1.0000  -1.9589   0.0000   0.3738
  39.500   1.2620   0.53358   0.53107  -0.2573  0.0060  1.0000  -1.9944   0.0000   0.3748
  40.000   1.2677   0.54093   0.53845  -0.2626  0.0055  1.0000  -2.0331   0.0000   0.3757
  40.500   1.2728   0.54807   0.54562  -0.2680  0.0050  1.0000  -2.0772   0.0000   0.3766
  41.000   1.2774   0.55510   0.55268  -0.2734  0.0046  1.0000  -2.1205   0.0000   0.3775
  41.500   1.2815   0.56199   0.55960  -0.2788  0.0042  1.0000  -2.1641   0.0000   0.3783
  42.000   1.2851   0.56869   0.56634  -0.2842  0.0039  1.0000  -2.2104   0.0000   0.3791
  42.500   1.2881   0.57506   0.57274  -0.2896  0.0036  1.0000  -2.2642   0.0000   0.3799
  43.000   1.2902   0.58110   0.57881  -0.2949  0.0034  1.0000  -2.3330   0.0000   0.3805
  43.500   1.2911   0.58744   0.58518  -0.2998  0.0032  1.0000  -2.4225   0.0000   0.3810


