xflr5 v6.50

 Calculated polar for: NACA 0012

 1 1 Reynolds number fixed          Mach number fixed         

 xtrf =   1.000 (top)        1.000 (bottom)
 Mach =   0.000     Re =     0.375 e 6     Ncrit =   9.000

  alpha     CL        CD       CDp       Cm    Top Xtr Bot Xtr   Cpmin    Chinge    XCp    
 ------- -------- --------- --------- -------- ------- ------- -------- --------- ---------
 -41.000  -1.2784   0.52554   0.52338   0.2731  1.0000  0.0031  -2.4020   0.0000   0.3759
 -40.500  -1.2756   0.51873   0.51653   0.2686  1.0000  0.0033  -2.2889   0.0000   0.3757
 -40.000  -1.2716   0.51353   0.51131   0.2635  1.0000  0.0034  -2.1893   0.0000   0.3750
 -39.500  -1.2667   0.50819   0.50594   0.2581  1.0000  0.0036  -2.1043   0.0000   0.3742
 -39.000  -1.2610   0.50249   0.50020   0.2528  1.0000  0.0038  -2.0333   0.0000   0.3733
 -38.500  -1.2549   0.49658   0.49427   0.2474  1.0000  0.0040  -1.9683   0.0000   0.3724
 -38.000  -1.2482   0.49054   0.48820   0.2420  1.0000  0.0042  -1.9246   0.0000   0.3715
 -37.500  -1.2411   0.48436   0.48200   0.2367  1.0000  0.0045  -1.9070   0.0000   0.3705
 -37.000  -1.2336   0.47805   0.47567   0.2313  1.0000  0.0048  -1.8946   0.0000   0.3695
 -36.500  -1.2255   0.47161   0.46919   0.2260  1.0000  0.0053  -1.8878   0.0000   0.3684
 -36.000  -1.2169   0.46494   0.46250   0.2207  1.0000  0.0058  -1.8917   0.0000   0.3674
 -35.500  -1.2072   0.45795   0.45549   0.2154  1.0000  0.0063  -1.9207   0.0000   0.3663
 -35.000  -1.1969   0.45093   0.44845   0.2099  1.0000  0.0065  -1.9693   0.0000   0.3650
 -34.500  -1.1864   0.44404   0.44153   0.2042  1.0000  0.0067  -2.0261   0.0000   0.3635
 -34.000  -1.1758   0.43717   0.43465   0.1985  1.0000  0.0067  -2.0970   0.0000   0.3619
 -33.500  -1.1650   0.43030   0.42776   0.1926  1.0000  0.0068  -2.2002   0.0000   0.3600
 -33.000  -1.1542   0.42356   0.42100   0.1865  1.0000  0.0069  -2.3351   0.0000   0.3579
 -32.500  -1.1450   0.41285   0.41029   0.1827  1.0000  0.0071  -2.3411   0.0000   0.3574
 -32.000  -1.1351   0.40680   0.40421   0.1785  1.0000  0.0074  -2.2129   0.0000   0.3569
 -31.500  -1.1243   0.40106   0.39845   0.1738  1.0000  0.0078  -2.1113   0.0000   0.3560
 -31.000  -1.1129   0.39507   0.39244   0.1689  1.0000  0.0082  -2.0288   0.0000   0.3548
 -30.500  -1.1010   0.38884   0.38617   0.1640  1.0000  0.0087  -1.9567   0.0000   0.3536
 -30.000  -1.0888   0.38248   0.37980   0.1591  1.0000  0.0096  -1.8889   0.0000   0.3522
 -29.500  -1.0760   0.37577   0.37306   0.1541  1.0000  0.0106  -1.8384   0.0000   0.3507
 -29.000  -1.0622   0.36872   0.36600   0.1489  1.0000  0.0114  -1.8130   0.0000   0.3490
 -28.500  -1.0481   0.36187   0.35913   0.1434  1.0000  0.0117  -1.8204   0.0000   0.3469
 -28.000  -1.0344   0.35522   0.35247   0.1379  1.0000  0.0119  -1.8730   0.0000   0.3446
 -27.500  -1.0209   0.34854   0.34576   0.1324  1.0000  0.0120  -1.9269   0.0000   0.3422
 -27.000  -1.0075   0.34177   0.33899   0.1270  1.0000  0.0120  -1.9883   0.0000   0.3397
 -26.500  -0.9939   0.33477   0.33197   0.1218  1.0000  0.0121  -2.0438   0.0000   0.3374
 -26.000  -0.9800   0.32752   0.32471   0.1168  1.0000  0.0121  -2.1088   0.0000   0.3350
 -25.500  -0.9674   0.31703   0.31423   0.1137  1.0000  0.0126  -2.1509   0.0000   0.3344
 -25.000  -0.9523   0.31163   0.30882   0.1103  1.0000  0.0132  -2.0175   0.0000   0.3341
 -24.500  -0.9371   0.30615   0.30331   0.1063  1.0000  0.0144  -1.9370   0.0000   0.3329
 -24.000  -0.9216   0.29980   0.29695   0.1017  1.0000  0.0168  -1.9241   0.0000   0.3309
 -23.500  -0.9066   0.29314   0.29028   0.0946  1.0000  0.0186  -2.0782   0.0000   0.3256
 -23.000  -0.8927   0.28685   0.28398   0.0890  1.0000  0.0187  -2.1075   0.0000   0.3220
 -22.500  -0.8780   0.28036   0.27748   0.0840  1.0000  0.0188  -2.1017   0.0000   0.3189
 -22.000  -0.8632   0.27354   0.27066   0.0792  1.0000  0.0188  -2.0892   0.0000   0.3158
 -21.500  -0.8487   0.26389   0.26100   0.0771  1.0000  0.0196  -2.0022   0.0000   0.3157
 -21.000  -0.8315   0.25847   0.25558   0.0739  1.0000  0.0202  -1.8674   0.0000   0.3148
 -20.500  -0.8148   0.25289   0.24997   0.0703  1.0000  0.0209  -1.7696   0.0000   0.3131
 -20.000  -0.7991   0.24666   0.24374   0.0664  1.0000  0.0220  -1.7421   0.0000   0.3109
 -19.500  -0.7843   0.23967   0.23674   0.0624  1.0000  0.0236  -1.7493   0.0000   0.3081
 -19.000  -0.7755   0.23073   0.22782   0.0547  1.0000  0.0266  -1.9948   0.0000   0.2996
 -18.500  -0.7642   0.22208   0.21917   0.0498  1.0000  0.0268  -2.1319   0.0000   0.2948
 -18.000  -0.7579   0.21096   0.20806   0.0463  1.0000  0.0279  -2.2873   0.0000   0.2913
 -17.500  -0.7374   0.20666   0.20375   0.0452  1.0000  0.0294  -2.0873   0.0000   0.2924
 -17.000  -0.7228   0.20046   0.19755   0.0422  1.0000  0.0317  -2.0139   0.0000   0.2903
 -16.500  -0.7203   0.19037   0.18746   0.0343  1.0000  0.0360  -2.2216   0.0000   0.2799
 -16.000  -0.7133   0.18097   0.17805   0.0297  1.0000  0.0363  -2.2933   0.0000   0.2743
 -15.500  -0.9468   0.10415   0.10105  -0.0035  1.0000  0.0239  -5.6810   0.0000   0.2260
 -15.000  -1.0661   0.07281   0.06906  -0.0236  1.0000  0.0226  -6.7253   0.0000   0.2084
 -14.500  -1.1041   0.05981   0.05567  -0.0312  1.0000  0.0228  -6.8955   0.0000   0.2034
 -14.000  -1.1258   0.05080   0.04630  -0.0351  1.0000  0.0233  -6.8935   0.0000   0.2016
 -13.500  -1.1377   0.04418   0.03935  -0.0360  1.0000  0.0241  -6.7990   0.0000   0.2021
 -13.000  -1.1429   0.03905   0.03387  -0.0345  1.0000  0.0250  -6.6514   0.0000   0.2045
 -12.500  -1.1387   0.03532   0.02981  -0.0314  1.0000  0.0260  -6.4318   0.0000   0.2079
 -12.000  -1.1255   0.03281   0.02702  -0.0275  1.0000  0.0267  -6.1420   0.0000   0.2119
 -11.500  -1.1184   0.02816   0.02197  -0.0226  1.0000  0.0283  -6.0058   0.0000   0.2168
 -11.000  -1.0927   0.02564   0.01928  -0.0192  1.0000  0.0301  -5.7209   0.0000   0.2201
 -10.500  -1.0594   0.02387   0.01737  -0.0165  1.0000  0.0321  -5.3933   0.0000   0.2227
 -10.000  -1.0228   0.02224   0.01556  -0.0140  1.0000  0.0347  -5.0666   0.0000   0.2253
  -9.500  -0.9862   0.02049   0.01363  -0.0113  1.0000  0.0373  -4.7517   0.0000   0.2281
  -9.000  -0.9500   0.01887   0.01196  -0.0086  1.0000  0.0423  -4.4249   0.0000   0.2312
  -8.500  -0.9081   0.01791   0.01088  -0.0063  1.0000  0.0466  -4.0779   0.0000   0.2338
  -8.000  -0.8735   0.01629   0.00924  -0.0028  1.0000  0.0532  -3.7797   0.0000   0.2381
  -7.500  -0.8325   0.01542   0.00828  -0.0002  1.0000  0.0600  -3.4512   0.0000   0.2416
  -7.000  -0.7936   0.01438   0.00724   0.0028  1.0000  0.0716  -3.1352   0.0000   0.2458
  -6.500  -0.7537   0.01350   0.00640   0.0056  1.0000  0.0878  -2.8621   0.0000   0.2502
  -6.000  -0.7142   0.01256   0.00563   0.0084  1.0000  0.1130  -2.6103   0.0000   0.2550
  -5.500  -0.6729   0.01179   0.00504   0.0109  1.0000  0.1494  -2.3568   0.0000   0.2599
  -5.000  -0.6306   0.01111   0.00456   0.0131  1.0000  0.1998  -2.1033   0.0000   0.2648
  -4.500  -0.5869   0.01050   0.00423   0.0149  1.0000  0.2579  -1.8575   0.0000   0.2698
  -4.000  -0.5175   0.00988   0.00394   0.0114  0.9947  0.3337  -1.5975   0.0000   0.2668
  -3.500  -0.4417   0.00930   0.00368   0.0068  0.9860  0.4110  -1.3417   0.0000   0.2603
  -3.000  -0.3644   0.00880   0.00344   0.0020  0.9773  0.4853  -1.1163   0.0000   0.2507
  -2.500  -0.2884   0.00829   0.00322  -0.0022  0.9668  0.5561  -0.9223   0.0000   0.2376
  -2.000  -0.2202   0.00785   0.00302  -0.0044  0.9516  0.6205  -0.7695   0.0000   0.2252
  -1.500  -0.1590   0.00745   0.00282  -0.0048  0.9310  0.6794  -0.6493   0.0000   0.2148
  -1.000  -0.1034   0.00713   0.00267  -0.0038  0.9043  0.7341  -0.5540   0.0000   0.2081
  -0.500  -0.0514   0.00693   0.00259  -0.0020  0.8703  0.7840  -0.4783   0.0000   0.2063
   0.000   0.0000   0.00686   0.00256  -0.0000  0.8297  0.8297  -0.4145   0.0000   0.3962
   0.500   0.0514   0.00693   0.00259   0.0020  0.7840  0.8703  -0.4783   0.0000   0.2063
   1.000   0.1034   0.00713   0.00267   0.0038  0.7341  0.9043  -0.5540   0.0000   0.2081
   1.500   0.1590   0.00745   0.00282   0.0048  0.6794  0.9310  -0.6493   0.0000   0.2148
   2.000   0.2202   0.00785   0.00302   0.0044  0.6205  0.9516  -0.7695   0.0000   0.2252
   2.500   0.2884   0.00829   0.00322   0.0022  0.5561  0.9668  -0.9223   0.0000   0.2376
   3.000   0.3643   0.00880   0.00344  -0.0020  0.4853  0.9774  -1.1162   0.0000   0.2507
   3.500   0.4418   0.00930   0.00368  -0.0068  0.4110  0.9860  -1.3417   0.0000   0.2603
   4.000   0.5176   0.00988   0.00394  -0.0114  0.3337  0.9947  -1.5975   0.0000   0.2668
   4.500   0.5868   0.01050   0.00422  -0.0149  0.2580  1.0000  -1.8571   0.0000   0.2698
   5.000   0.6304   0.01110   0.00455  -0.0130  0.1999  1.0000  -2.1029   0.0000   0.2647
   5.500   0.6728   0.01179   0.00504  -0.0109  0.1494  1.0000  -2.3564   0.0000   0.2598
   6.000   0.7140   0.01256   0.00562  -0.0084  0.1131  1.0000  -2.6099   0.0000   0.2550
   6.500   0.7536   0.01349   0.00640  -0.0056  0.0878  1.0000  -2.8618   0.0000   0.2502
   7.000   0.7935   0.01438   0.00724  -0.0028  0.0716  1.0000  -3.1349   0.0000   0.2458
   7.500   0.8324   0.01542   0.00828   0.0002  0.0600  1.0000  -3.4510   0.0000   0.2416
   8.000   0.8734   0.01629   0.00924   0.0028  0.0532  1.0000  -3.7795   0.0000   0.2380
   8.500   0.9081   0.01791   0.01087   0.0063  0.0466  1.0000  -4.0780   0.0000   0.2338
   9.000   0.9501   0.01887   0.01196   0.0085  0.0423  1.0000  -4.4252   0.0000   0.2312
   9.500   0.9863   0.02050   0.01363   0.0113  0.0373  1.0000  -4.7520   0.0000   0.2282
  10.000   1.0231   0.02224   0.01556   0.0140  0.0347  1.0000  -5.0674   0.0000   0.2253
  10.500   1.0597   0.02387   0.01737   0.0165  0.0321  1.0000  -5.3945   0.0000   0.2228
  11.000   1.0931   0.02564   0.01928   0.0192  0.0301  1.0000  -5.7225   0.0000   0.2202
  11.500   1.1189   0.02817   0.02198   0.0224  0.0283  1.0000  -6.0074   0.0000   0.2169
  12.000   1.1264   0.03281   0.02702   0.0273  0.0267  1.0000  -6.1461   0.0000   0.2120
  12.500   1.1397   0.03532   0.02981   0.0312  0.0260  1.0000  -6.4367   0.0000   0.2081
  13.000   1.1441   0.03906   0.03388   0.0343  0.0250  1.0000  -6.6571   0.0000   0.2047
  13.500   1.1393   0.04418   0.03935   0.0357  0.0241  1.0000  -6.8063   0.0000   0.2024
  14.000   1.1276   0.05079   0.04630   0.0348  0.0233  1.0000  -6.9029   0.0000   0.2019
  14.500   1.1064   0.05978   0.05564   0.0308  0.0227  1.0000  -6.9078   0.0000   0.2038
  15.000   1.0688   0.07278   0.06902   0.0232  0.0225  1.0000  -6.7396   0.0000   0.2089
  17.500   0.7398   0.20714   0.20423  -0.0457  0.0293  1.0000  -2.0946   0.0000   0.2928
  18.000   0.7604   0.21145   0.20855  -0.0467  0.0279  1.0000  -2.2984   0.0000   0.2915
  18.500   0.7661   0.22285   0.21994  -0.0503  0.0268  1.0000  -2.1298   0.0000   0.2953
  19.000   0.7773   0.23162   0.22870  -0.0553  0.0266  1.0000  -1.9920   0.0000   0.3001
  19.500   0.7862   0.24071   0.23779  -0.0629  0.0236  1.0000  -1.7499   0.0000   0.3086
  20.000   0.8009   0.24783   0.24491  -0.0669  0.0219  1.0000  -1.7436   0.0000   0.3113
  20.500   0.8165   0.25427   0.25135  -0.0707  0.0209  1.0000  -1.7714   0.0000   0.3135
  21.000   0.8331   0.26003   0.25714  -0.0744  0.0202  1.0000  -1.8711   0.0000   0.3152
  21.500   0.8502   0.26563   0.26275  -0.0775  0.0196  1.0000  -2.0066   0.0000   0.3161
  22.000   0.8645   0.27548   0.27260  -0.0797  0.0188  1.0000  -2.0897   0.0000   0.3162
  22.500   0.8792   0.28252   0.27965  -0.0845  0.0188  1.0000  -2.1017   0.0000   0.3193
  23.000   0.8939   0.28926   0.28640  -0.0895  0.0187  1.0000  -2.1073   0.0000   0.3224
  23.500   0.9078   0.29583   0.29297  -0.0951  0.0186  1.0000  -2.0757   0.0000   0.3261
  24.000   0.9229   0.30288   0.30002  -0.1023  0.0167  1.0000  -1.9215   0.0000   0.3314
  24.500   0.9383   0.30946   0.30662  -0.1068  0.0143  1.0000  -1.9375   0.0000   0.3333
  25.000   0.9534   0.31520   0.31238  -0.1108  0.0132  1.0000  -2.0196   0.0000   0.3344
  25.500   0.9684   0.32088   0.31808  -0.1141  0.0126  1.0000  -2.1541   0.0000   0.3347
  26.000   0.9808   0.33174   0.32894  -0.1172  0.0121  1.0000  -2.1038   0.0000   0.3354
  26.500   0.9945   0.33937   0.33658  -0.1223  0.0121  1.0000  -2.0391   0.0000   0.3378
  27.000   1.0080   0.34678   0.34400  -0.1274  0.0120  1.0000  -1.9830   0.0000   0.3401
  27.500   1.0213   0.35400   0.35123  -0.1328  0.0120  1.0000  -1.9217   0.0000   0.3426
  28.000   1.0346   0.36115   0.35841  -0.1383  0.0119  1.0000  -1.8676   0.0000   0.3450
  28.500   1.0482   0.36829   0.36556  -0.1438  0.0117  1.0000  -1.8147   0.0000   0.3473
  29.000   1.0623   0.37567   0.37295  -0.1493  0.0114  1.0000  -1.8099   0.0000   0.3494
  29.500   1.0759   0.38323   0.38053  -0.1544  0.0106  1.0000  -1.8358   0.0000   0.3511
  30.000   1.0885   0.39045   0.38777  -0.1594  0.0096  1.0000  -1.8867   0.0000   0.3526
  30.500   1.1006   0.39733   0.39468  -0.1643  0.0087  1.0000  -1.9543   0.0000   0.3540
  31.000   1.1122   0.40412   0.40149  -0.1692  0.0082  1.0000  -2.0259   0.0000   0.3552
  31.500   1.1234   0.41066   0.40806  -0.1740  0.0077  1.0000  -2.1084   0.0000   0.3564
  32.000   1.1340   0.41696   0.41438  -0.1787  0.0074  1.0000  -2.2103   0.0000   0.3573
  32.500   1.1436   0.42364   0.42109  -0.1828  0.0071  1.0000  -2.3393   0.0000   0.3578
  33.000   1.1525   0.43498   0.43243  -0.1867  0.0069  1.0000  -2.3199   0.0000   0.3583
  33.500   1.1632   0.44259   0.44006  -0.1927  0.0068  1.0000  -2.1825   0.0000   0.3605
  34.000   1.1738   0.45031   0.44780  -0.1986  0.0067  1.0000  -2.0820   0.0000   0.3623
  34.500   1.1842   0.45801   0.45552  -0.2043  0.0067  1.0000  -2.0120   0.0000   0.3640
  35.000   1.1944   0.46576   0.46328  -0.2099  0.0065  1.0000  -1.9555   0.0000   0.3654
  35.500   1.2046   0.47365   0.47119  -0.2153  0.0063  1.0000  -1.9073   0.0000   0.3667
  36.000   1.2140   0.48149   0.47906  -0.2206  0.0058  1.0000  -1.8793   0.0000   0.3678
  36.500   1.2223   0.48903   0.48662  -0.2258  0.0053  1.0000  -1.8757   0.0000   0.3689
  37.000   1.2301   0.49637   0.49400  -0.2311  0.0048  1.0000  -1.8821   0.0000   0.3699
  37.500   1.2374   0.50360   0.50124  -0.2364  0.0045  1.0000  -1.8941   0.0000   0.3710
  38.000   1.2443   0.51071   0.50838  -0.2417  0.0042  1.0000  -1.9119   0.0000   0.3720
  38.500   1.2507   0.51771   0.51541  -0.2470  0.0040  1.0000  -1.9592   0.0000   0.3729
  39.000   1.2566   0.52459   0.52232  -0.2523  0.0038  1.0000  -2.0235   0.0000   0.3739
  39.500   1.2620   0.53126   0.52902  -0.2576  0.0036  1.0000  -2.0947   0.0000   0.3748
  40.000   1.2666   0.53756   0.53535  -0.2629  0.0034  1.0000  -2.1802   0.0000   0.3756
  40.500   1.2704   0.54375   0.54156  -0.2680  0.0033  1.0000  -2.2801   0.0000   0.3762
  41.000   1.2725   0.55220   0.55004  -0.2721  0.0031  1.0000  -2.3920   0.0000   0.3764


