xflr5 v6.50

 Calculated polar for: NACA 0012

 1 1 Reynolds number fixed          Mach number fixed         

 xtrf =   1.000 (top)        1.000 (bottom)
 Mach =   0.000     Re =     0.125 e 6     Ncrit =   9.000

  alpha     CL        CD       CDp       Cm    Top Xtr Bot Xtr   Cpmin    Chinge    XCp    
 ------- -------- --------- --------- -------- ------- ------- -------- --------- ---------
 -39.000  -0.7321   0.43724   0.43418   0.1305  1.0000  0.0122  -0.9759   0.0000   0.3750
 -38.500  -0.7247   0.42410   0.42100   0.1275  1.0000  0.0125  -0.8988   0.0000   0.3749
 -38.000  -0.7204   0.41552   0.41239   0.1243  1.0000  0.0129  -0.8496   0.0000   0.3736
 -37.500  -0.7165   0.40774   0.40455   0.1211  1.0000  0.0133  -0.8100   0.0000   0.3721
 -37.000  -0.7123   0.40002   0.39679   0.1179  1.0000  0.0139  -0.7945   0.0000   0.3704
 -36.500  -0.7078   0.39217   0.38890   0.1146  1.0000  0.0145  -0.7938   0.0000   0.3686
 -36.000  -0.7029   0.38416   0.38085   0.1113  1.0000  0.0152  -0.7973   0.0000   0.3668
 -35.500  -0.6976   0.37599   0.37264   0.1080  1.0000  0.0161  -0.8054   0.0000   0.3650
 -35.000  -0.6919   0.36770   0.36430   0.1047  1.0000  0.0171  -0.8211   0.0000   0.3630
 -34.500  -0.6863   0.35981   0.35637   0.1014  1.0000  0.0181  -0.8575   0.0000   0.3608
 -34.000  -0.6824   0.35351   0.35003   0.0979  1.0000  0.0186  -0.9290   0.0000   0.3577
 -32.500  -1.1414   0.41962   0.41520   0.1791  1.0000  0.0192  -2.1100   0.0000   0.3555
 -32.000  -1.1310   0.41053   0.40607   0.1757  1.0000  0.0197  -2.0053   0.0000   0.3555
 -31.500  -1.1199   0.40378   0.39927   0.1713  1.0000  0.0203  -1.9321   0.0000   0.3547
 -31.000  -1.1084   0.39727   0.39273   0.1665  1.0000  0.0210  -1.8716   0.0000   0.3536
 -30.500  -1.0964   0.39073   0.38613   0.1617  1.0000  0.0219  -1.8180   0.0000   0.3524
 -30.000  -1.0840   0.38410   0.37947   0.1568  1.0000  0.0228  -1.7693   0.0000   0.3510
 -29.500  -1.0713   0.37738   0.37272   0.1518  1.0000  0.0240  -1.7256   0.0000   0.3495
 -29.000  -1.0581   0.37065   0.36596   0.1467  1.0000  0.0253  -1.6931   0.0000   0.3478
 -28.500  -1.0442   0.36497   0.36026   0.1406  1.0000  0.0263  -1.7604   0.0000   0.3450
 -28.000  -1.0317   0.36188   0.35716   0.1335  1.0000  0.0267  -1.8626   0.0000   0.3411
 -27.500  -1.0208   0.35981   0.35506   0.1265  1.0000  0.0269  -1.9687   0.0000   0.3370
 -27.000  -1.0055   0.34468   0.33992   0.1243  1.0000  0.0274  -1.9270   0.0000   0.3377
 -26.500  -0.9905   0.33552   0.33072   0.1220  1.0000  0.0284  -1.8218   0.0000   0.3385
 -26.000  -0.9759   0.32899   0.32416   0.1181  1.0000  0.0300  -1.7809   0.0000   0.3376
 -25.500  -0.9611   0.32244   0.31759   0.1137  1.0000  0.0322  -1.7764   0.0000   0.3359
 -25.000  -0.9461   0.31608   0.31121   0.1083  1.0000  0.0350  -1.8214   0.0000   0.3332
 -24.500  -0.9387   0.31975   0.31492   0.0977  1.0000  0.0363  -2.0369   0.0000   0.3241
 -24.000  -0.9196   0.30335   0.29845   0.0969  1.0000  0.0371  -1.9220   0.0000   0.3261
 -23.500  -0.9024   0.29529   0.29036   0.0945  1.0000  0.0383  -1.8035   0.0000   0.3266
 -23.000  -0.8863   0.28893   0.28398   0.0909  1.0000  0.0399  -1.7311   0.0000   0.3254
 -22.500  -0.8704   0.28265   0.27768   0.0868  1.0000  0.0418  -1.6808   0.0000   0.3235
 -22.000  -0.8548   0.27634   0.27135   0.0822  1.0000  0.0443  -1.6527   0.0000   0.3208
 -21.500  -0.8434   0.27325   0.26828   0.0743  1.0000  0.0467  -1.7358   0.0000   0.3138
 -21.000  -0.8384   0.27309   0.26816   0.0659  1.0000  0.0471  -1.8466   0.0000   0.3053
 -20.500  -0.8126   0.25667   0.25167   0.0670  1.0000  0.0484  -1.7108   0.0000   0.3096
 -20.000  -0.7934   0.24977   0.24475   0.0650  1.0000  0.0507  -1.6344   0.0000   0.3101
 -19.500  -0.7774   0.24327   0.23824   0.0614  1.0000  0.0543  -1.6330   0.0000   0.3079
 -19.000  -0.7748   0.23969   0.23470   0.0526  1.0000  0.0588  -1.8350   0.0000   0.2976
 -18.500  -0.7636   0.22986   0.22489   0.0486  1.0000  0.0600  -1.8993   0.0000   0.2940
 -18.000  -0.7356   0.22189   0.21687   0.0498  1.0000  0.0646  -1.6979   0.0000   0.2989
 -17.500  -0.7267   0.21594   0.21092   0.0443  1.0000  0.0711  -1.7532   0.0000   0.2927
 -17.000  -0.7407   0.21275   0.20780   0.0342  1.0000  0.0725  -1.9981   0.0000   0.2788
 -16.500  -0.7053   0.19966   0.19463   0.0368  1.0000  0.0748  -1.7803   0.0000   0.2853
 -16.000  -0.6862   0.19289   0.18784   0.0355  1.0000  0.0784  -1.6829   0.0000   0.2855
 -15.500  -0.6792   0.18593   0.18090   0.0312  1.0000  0.0845  -1.7077   0.0000   0.2802
 -15.000  -0.7088   0.17940   0.17446   0.0192  1.0000  0.0871  -2.0286   0.0000   0.2621
 -14.500  -0.6634   0.16962   0.16462   0.0248  1.0000  0.0913  -1.7197   0.0000   0.2729
 -14.000  -0.6536   0.16259   0.15759   0.0222  1.0000  0.0982  -1.7030   0.0000   0.2700
 -13.000  -0.6419   0.14701   0.14204   0.0169  1.0000  0.1116  -1.7621   0.0000   0.2634
 -12.500  -0.8649   0.07951   0.07435  -0.0283  1.0000  0.0586  -4.0063   0.0000   0.2030
 -12.000  -0.9242   0.06599   0.06049  -0.0347  1.0000  0.0577  -4.2754   0.0000   0.1992
 -11.500  -0.9723   0.05737   0.05140  -0.0329  1.0000  0.0575  -4.4363   0.0000   0.2038
 -11.000  -1.0008   0.05137   0.04474  -0.0272  1.0000  0.0586  -4.5024   0.0000   0.2111
 -10.500  -1.0012   0.04455   0.03749  -0.0235  1.0000  0.0619  -4.4386   0.0000   0.2154
 -10.000  -0.9789   0.04044   0.03306  -0.0205  1.0000  0.0657  -4.2581   0.0000   0.2185
  -9.500  -0.9555   0.03566   0.02757  -0.0168  1.0000  0.0693  -4.1333   0.0000   0.2223
  -9.000  -0.9238   0.03124   0.02252  -0.0137  1.0000  0.0740  -3.9640   0.0000   0.2255
  -8.500  -0.8837   0.02838   0.01961  -0.0117  1.0000  0.0819  -3.6927   0.0000   0.2276
  -8.000  -0.8440   0.02578   0.01688  -0.0094  1.0000  0.0932  -3.4251   0.0000   0.2302
  -7.500  -0.8023   0.02330   0.01427  -0.0070  1.0000  0.1061  -3.1630   0.0000   0.2331
  -7.000  -0.7630   0.02130   0.01230  -0.0044  1.0000  0.1249  -2.8941   0.0000   0.2366
  -6.500  -0.7248   0.01963   0.01073  -0.0014  1.0000  0.1527  -2.6771   0.0000   0.2409
  -6.000  -0.6880   0.01794   0.00928   0.0018  1.0000  0.1945  -2.4618   0.0000   0.2459
  -5.500  -0.6522   0.01643   0.00818   0.0051  1.0000  0.2559  -2.2426   0.0000   0.2515
  -5.000  -0.6151   0.01530   0.00738   0.0083  1.0000  0.3322  -2.0155   0.0000   0.2576
  -4.500  -0.5762   0.01445   0.00688   0.0114  1.0000  0.4099  -1.7946   0.0000   0.2642
  -4.000  -0.5355   0.01383   0.00655   0.0142  1.0000  0.4854  -1.6038   0.0000   0.2715
  -3.500  -0.4938   0.01336   0.00637   0.0170  1.0000  0.5587  -1.4156   0.0000   0.2798
  -3.000  -0.4510   0.01303   0.00628   0.0197  1.0000  0.6300  -1.2362   0.0000   0.2894
  -2.500  -0.4079   0.01287   0.00642   0.0226  1.0000  0.6997  -1.0825   0.0000   0.3014
  -2.000  -0.3663   0.01290   0.00666   0.0257  1.0000  0.7695  -0.9433   0.0000   0.3165
  -1.500  -0.3274   0.01319   0.00719   0.0296  1.0000  0.8348  -0.8235   0.0000   0.3373
  -1.000  -0.2584   0.01385   0.00788   0.0277  0.9908  0.8991  -0.6908   0.0000   0.3543
  -0.500  -0.1408   0.01463   0.00860   0.0163  0.9741  0.9390  -0.5407   0.0000   0.3634
   0.000  -0.0000   0.01497   0.00890   0.0000  0.9599  0.9599  -0.4105   0.0000   0.3314
   0.500   0.1408   0.01462   0.00860  -0.0163  0.9390  0.9741  -0.5407   0.0000   0.3634
   1.000   0.2584   0.01385   0.00788  -0.0277  0.8991  0.9908  -0.6908   0.0000   0.3543
   1.500   0.3273   0.01319   0.00719  -0.0296  0.8348  1.0000  -0.8234   0.0000   0.3373
   2.000   0.3662   0.01290   0.00666  -0.0257  0.7695  1.0000  -0.9431   0.0000   0.3165
   2.500   0.4078   0.01286   0.00641  -0.0226  0.6997  1.0000  -1.0823   0.0000   0.3014
   3.000   0.4509   0.01302   0.00628  -0.0197  0.6300  1.0000  -1.2360   0.0000   0.2894
   3.500   0.4936   0.01335   0.00637  -0.0170  0.5588  1.0000  -1.4153   0.0000   0.2797
   4.000   0.5354   0.01383   0.00655  -0.0142  0.4855  1.0000  -1.6036   0.0000   0.2715
   4.500   0.5761   0.01445   0.00688  -0.0113  0.4099  1.0000  -1.7944   0.0000   0.2642
   5.000   0.6150   0.01530   0.00738  -0.0083  0.3322  1.0000  -2.0152   0.0000   0.2576
   5.500   0.6521   0.01643   0.00818  -0.0051  0.2560  1.0000  -2.2424   0.0000   0.2515
   6.000   0.6880   0.01794   0.00927  -0.0018  0.1945  1.0000  -2.4616   0.0000   0.2459
   6.500   0.7248   0.01963   0.01072   0.0014  0.1528  1.0000  -2.6770   0.0000   0.2409
   7.000   0.7629   0.02130   0.01230   0.0044  0.1249  1.0000  -2.8940   0.0000   0.2366
   7.500   0.8023   0.02329   0.01426   0.0070  0.1061  1.0000  -3.1629   0.0000   0.2331
   8.000   0.8440   0.02578   0.01687   0.0094  0.0932  1.0000  -3.4252   0.0000   0.2302
   8.500   0.8838   0.02838   0.01961   0.0117  0.0819  1.0000  -3.6929   0.0000   0.2276
   9.000   0.9239   0.03125   0.02253   0.0137  0.0740  1.0000  -3.9643   0.0000   0.2255
   9.500   0.9556   0.03566   0.02757   0.0168  0.0693  1.0000  -4.1336   0.0000   0.2223
  10.000   0.9791   0.04044   0.03307   0.0205  0.0657  1.0000  -4.2586   0.0000   0.2185
  10.500   1.0015   0.04456   0.03749   0.0235  0.0619  1.0000  -4.4398   0.0000   0.2154
  11.000   1.0011   0.05138   0.04475   0.0271  0.0586  1.0000  -4.5030   0.0000   0.2112
  11.500   0.9727   0.05741   0.05145   0.0327  0.0575  1.0000  -4.4364   0.0000   0.2040
  12.000   0.9247   0.06608   0.06058   0.0344  0.0577  1.0000  -4.2748   0.0000   0.1995
  12.500   0.8655   0.07970   0.07455   0.0279  0.0586  1.0000  -4.0039   0.0000   0.2035
  13.000   0.6443   0.14710   0.14213  -0.0173  0.1113  1.0000  -1.7664   0.0000   0.2639
  14.000   0.6555   0.16279   0.15779  -0.0227  0.0980  1.0000  -1.7027   0.0000   0.2707
  14.500   0.6660   0.16982   0.16482  -0.0252  0.0912  1.0000  -1.7268   0.0000   0.2732
  15.000   0.7103   0.17967   0.17473  -0.0197  0.0871  1.0000  -2.0276   0.0000   0.2627
  15.500   0.6807   0.18623   0.18119  -0.0318  0.0842  1.0000  -1.7047   0.0000   0.2811
  16.000   0.6884   0.19327   0.18823  -0.0360  0.0783  1.0000  -1.6871   0.0000   0.2860
  16.500   0.7078   0.20011   0.19508  -0.0372  0.0747  1.0000  -1.7872   0.0000   0.2856
  17.000   0.7423   0.21319   0.20824  -0.0347  0.0725  1.0000  -1.9973   0.0000   0.2794
  17.500   0.7279   0.21642   0.21140  -0.0449  0.0709  1.0000  -1.7475   0.0000   0.2936
  18.000   0.7376   0.22259   0.21757  -0.0502  0.0644  1.0000  -1.7016   0.0000   0.2992
  18.500   0.7664   0.23090   0.22593  -0.0487  0.0599  1.0000  -1.9110   0.0000   0.2940
  19.000   0.7758   0.24038   0.23539  -0.0532  0.0587  1.0000  -1.8288   0.0000   0.2983
  19.500   0.7792   0.24438   0.23935  -0.0619  0.0542  1.0000  -1.6331   0.0000   0.3084
  20.000   0.7950   0.25105   0.24604  -0.0654  0.0506  1.0000  -1.6358   0.0000   0.3104
  20.500   0.8142   0.25816   0.25317  -0.0673  0.0484  1.0000  -1.7142   0.0000   0.3099
  21.000   0.8393   0.27439   0.26946  -0.0664  0.0471  1.0000  -1.8450   0.0000   0.3058
  21.500   0.8444   0.27490   0.26993  -0.0749  0.0466  1.0000  -1.7326   0.0000   0.3144
  22.000   0.8562   0.27846   0.27348  -0.0826  0.0443  1.0000  -1.6528   0.0000   0.3213
  22.500   0.8718   0.28500   0.28004  -0.0872  0.0418  1.0000  -1.6816   0.0000   0.3239
  23.000   0.8876   0.29152   0.28658  -0.0913  0.0398  1.0000  -1.7321   0.0000   0.3258
  23.500   0.9036   0.29812   0.29320  -0.0950  0.0383  1.0000  -1.8050   0.0000   0.3269
  24.000   0.9206   0.30649   0.30160  -0.0972  0.0371  1.0000  -1.9248   0.0000   0.3264
  24.500   0.9390   0.32260   0.31777  -0.0982  0.0363  1.0000  -2.0308   0.0000   0.3246
  25.000   0.9470   0.31976   0.31489  -0.1088  0.0350  1.0000  -1.8154   0.0000   0.3336
  25.500   0.9619   0.32654   0.32170  -0.1141  0.0321  1.0000  -1.7739   0.0000   0.3363
  26.000   0.9766   0.33344   0.32861  -0.1185  0.0299  1.0000  -1.7790   0.0000   0.3379
  26.500   0.9910   0.34032   0.33553  -0.1224  0.0284  1.0000  -1.8207   0.0000   0.3389
  27.000   1.0058   0.34999   0.34524  -0.1245  0.0273  1.0000  -1.9279   0.0000   0.3380
  27.500   1.0205   0.36497   0.36023  -0.1268  0.0269  1.0000  -1.9610   0.0000   0.3374
  28.000   1.0315   0.36767   0.36295  -0.1339  0.0267  1.0000  -1.8551   0.0000   0.3416
  28.500   1.0440   0.37144   0.36673  -0.1409  0.0263  1.0000  -1.7531   0.0000   0.3455
  29.000   1.0578   0.37773   0.37305  -0.1470  0.0252  1.0000  -1.6900   0.0000   0.3482
  29.500   1.0709   0.38500   0.38035  -0.1521  0.0239  1.0000  -1.7226   0.0000   0.3499
  30.000   1.0835   0.39225   0.38763  -0.1570  0.0228  1.0000  -1.7660   0.0000   0.3514
  30.500   1.0956   0.39943   0.39484  -0.1619  0.0218  1.0000  -1.8142   0.0000   0.3528
  31.000   1.1074   0.40654   0.40201  -0.1667  0.0210  1.0000  -1.8674   0.0000   0.3540
  31.500   1.1188   0.41364   0.40914  -0.1714  0.0203  1.0000  -1.9274   0.0000   0.3551
  32.000   1.1295   0.42101   0.41655  -0.1758  0.0197  1.0000  -2.0002   0.0000   0.3559
  32.500   1.1396   0.43084   0.42643  -0.1791  0.0192  1.0000  -2.1062   0.0000   0.3558
  33.500   1.1592   0.44793   0.44355  -0.1894  0.0186  1.0000  -2.0856   0.0000   0.3588
  34.000   1.1704   0.45243   0.44810  -0.1964  0.0183  1.0000  -1.9905   0.0000   0.3615
  34.500   1.1818   0.45964   0.45535  -0.2024  0.0171  1.0000  -1.9202   0.0000   0.3632
  35.000   1.1914   0.46730   0.46305  -0.2077  0.0158  1.0000  -1.8997   0.0000   0.3645
  35.500   1.2004   0.47478   0.47056  -0.2128  0.0149  1.0000  -1.8956   0.0000   0.3656
  36.000   1.2089   0.48210   0.47792  -0.2180  0.0141  1.0000  -1.9026   0.0000   0.3666
  36.500   1.2168   0.48928   0.48515  -0.2231  0.0135  1.0000  -1.9207   0.0000   0.3676
  37.000   1.2241   0.49645   0.49237  -0.2280  0.0130  1.0000  -1.9525   0.0000   0.3684
  37.500   1.2304   0.50421   0.50017  -0.2326  0.0126  1.0000  -2.0037   0.0000   0.3690
  38.000   1.2355   0.51665   0.51267  -0.2357  0.0123  1.0000  -2.0893   0.0000   0.3685


