xflr5 v6.50

 Calculated polar for: NACA 0012

 1 1 Reynolds number fixed          Mach number fixed         

 xtrf =   1.000 (top)        1.000 (bottom)
 Mach =   0.000     Re =     0.175 e 6     Ncrit =   9.000

  alpha     CL        CD       CDp       Cm    Top Xtr Bot Xtr   Cpmin    Chinge    XCp    
 ------- -------- --------- --------- -------- ------- ------- -------- --------- ---------
 -33.500  -1.1641   0.42961   0.42592   0.1917  1.0000  0.0126  -2.1461   0.0000   0.3596
 -33.000  -1.1546   0.42301   0.41928   0.1874  1.0000  0.0132  -2.0590   0.0000   0.3591
 -32.500  -1.1442   0.41680   0.41304   0.1826  1.0000  0.0139  -2.0020   0.0000   0.3581
 -32.000  -1.1332   0.41047   0.40668   0.1776  1.0000  0.0149  -1.9547   0.0000   0.3570
 -31.500  -1.1217   0.40394   0.40012   0.1726  1.0000  0.0163  -1.9150   0.0000   0.3557
 -31.000  -1.1095   0.39715   0.39330   0.1674  1.0000  0.0174  -1.8899   0.0000   0.3542
 -30.500  -1.0966   0.39053   0.38663   0.1619  1.0000  0.0181  -1.8815   0.0000   0.3524
 -30.000  -1.0836   0.38477   0.38084   0.1559  1.0000  0.0185  -1.8863   0.0000   0.3500
 -29.500  -1.0711   0.37959   0.37565   0.1497  1.0000  0.0186  -1.8886   0.0000   0.3474
 -29.000  -1.0590   0.37461   0.37065   0.1437  1.0000  0.0187  -1.9020   0.0000   0.3446
 -28.500  -1.0471   0.36971   0.36574   0.1376  1.0000  0.0188  -1.9676   0.0000   0.3417
 -28.000  -1.0353   0.36379   0.35984   0.1319  1.0000  0.0189  -2.0372   0.0000   0.3389
 -27.500  -1.0198   0.34817   0.34415   0.1315  1.0000  0.0195  -1.8833   0.0000   0.3416
 -27.000  -1.0060   0.34151   0.33745   0.1278  1.0000  0.0203  -1.8090   0.0000   0.3411
 -26.500  -0.9918   0.33520   0.33112   0.1236  1.0000  0.0213  -1.7717   0.0000   0.3399
 -26.000  -0.9773   0.32868   0.32458   0.1190  1.0000  0.0228  -1.7642   0.0000   0.3383
 -25.500  -0.9624   0.32181   0.31770   0.1141  1.0000  0.0252  -1.8014   0.0000   0.3361
 -25.000  -0.9494   0.31825   0.31414   0.1057  1.0000  0.0267  -2.0110   0.0000   0.3299
 -24.500  -0.9392   0.31540   0.31130   0.0985  1.0000  0.0269  -2.1344   0.0000   0.3245
 -24.000  -0.9198   0.30036   0.29621   0.0987  1.0000  0.0279  -1.9575   0.0000   0.3278
 -23.500  -0.9034   0.29430   0.29013   0.0958  1.0000  0.0294  -1.8256   0.0000   0.3277
 -23.000  -0.8876   0.28816   0.28397   0.0917  1.0000  0.0310  -1.7658   0.0000   0.3260
 -22.500  -0.8720   0.28180   0.27759   0.0873  1.0000  0.0327  -1.7258   0.0000   0.3238
 -22.000  -0.8565   0.27543   0.27121   0.0821  1.0000  0.0350  -1.7250   0.0000   0.3204
 -21.500  -0.8458   0.27205   0.26784   0.0739  1.0000  0.0361  -1.8341   0.0000   0.3129
 -21.000  -0.8360   0.26790   0.26371   0.0672  1.0000  0.0363  -1.8965   0.0000   0.3067
 -20.500  -0.8168   0.25515   0.25093   0.0658  1.0000  0.0371  -1.8356   0.0000   0.3076
 -20.000  -0.7965   0.24800   0.24376   0.0647  1.0000  0.0384  -1.7128   0.0000   0.3091
 -19.500  -0.7798   0.24173   0.23748   0.0616  1.0000  0.0406  -1.6725   0.0000   0.3078
 -19.000  -0.7655   0.23476   0.23050   0.0573  1.0000  0.0446  -1.7110   0.0000   0.3044
 -18.500  -0.7691   0.22972   0.22551   0.0467  1.0000  0.0470  -2.0310   0.0000   0.2910
 -18.000  -0.7471   0.21824   0.21401   0.0468  1.0000  0.0485  -1.9382   0.0000   0.2934
 -17.500  -0.7262   0.21229   0.20803   0.0458  1.0000  0.0512  -1.7974   0.0000   0.2947
 -17.000  -0.7177   0.20575   0.20147   0.0403  1.0000  0.0579  -1.8448   0.0000   0.2884
 -16.500  -0.7276   0.19886   0.19466   0.0306  1.0000  0.0592  -2.0986   0.0000   0.2749
 -16.000  -0.7042   0.18837   0.18413   0.0317  1.0000  0.0609  -1.9403   0.0000   0.2784
 -15.500  -0.6837   0.18203   0.17777   0.0310  1.0000  0.0631  -1.8056   0.0000   0.2795
 -15.000  -0.6724   0.17502   0.17076   0.0283  1.0000  0.0671  -1.7693   0.0000   0.2767
 -14.500  -0.6953   0.16442   0.16023   0.0166  1.0000  0.0723  -2.0949   0.0000   0.2589
 -14.000  -0.6860   0.15381   0.14963   0.0157  1.0000  0.0741  -2.0608   0.0000   0.2585
 -13.500  -0.7997   0.10484   0.10065  -0.0073  1.0000  0.0467  -3.7205   0.0000   0.2248
 -13.000  -0.9093   0.07479   0.07027  -0.0279  1.0000  0.0442  -4.5462   0.0000   0.2040
 -12.500  -0.9752   0.06018   0.05518  -0.0358  1.0000  0.0434  -4.8789   0.0000   0.1990
 -12.000  -1.0187   0.05170   0.04618  -0.0347  1.0000  0.0435  -5.0083   0.0000   0.2026
 -11.500  -1.0431   0.04579   0.03972  -0.0291  1.0000  0.0443  -5.0334   0.0000   0.2095
 -11.000  -1.0422   0.04069   0.03399  -0.0244  1.0000  0.0457  -4.9771   0.0000   0.2146
 -10.500  -1.0264   0.03650   0.02917  -0.0204  1.0000  0.0475  -4.8442   0.0000   0.2188
 -10.000  -0.9973   0.03246   0.02502  -0.0181  1.0000  0.0522  -4.5929   0.0000   0.2210
  -9.500  -0.9628   0.02980   0.02202  -0.0154  1.0000  0.0569  -4.3448   0.0000   0.2237
  -9.000  -0.9253   0.02627   0.01809  -0.0130  1.0000  0.0615  -4.1133   0.0000   0.2262
  -8.500  -0.8853   0.02416   0.01594  -0.0108  1.0000  0.0681  -3.8192   0.0000   0.2286
  -8.000  -0.8460   0.02195   0.01363  -0.0083  1.0000  0.0770  -3.5383   0.0000   0.2315
  -7.500  -0.8064   0.02035   0.01197  -0.0056  1.0000  0.0890  -3.2477   0.0000   0.2349
  -7.000  -0.7684   0.01873   0.01032  -0.0026  1.0000  0.1042  -2.9657   0.0000   0.2389
  -6.500  -0.7320   0.01716   0.00894   0.0006  1.0000  0.1279  -2.7397   0.0000   0.2436
  -6.000  -0.6947   0.01581   0.00778   0.0037  1.0000  0.1641  -2.5112   0.0000   0.2485
  -5.500  -0.6565   0.01465   0.00687   0.0067  1.0000  0.2191  -2.2787   0.0000   0.2538
  -5.000  -0.6178   0.01363   0.00617   0.0094  1.0000  0.2885  -2.0426   0.0000   0.2593
  -4.500  -0.5775   0.01285   0.00573   0.0120  1.0000  0.3619  -1.8119   0.0000   0.2653
  -4.000  -0.5355   0.01225   0.00543   0.0144  1.0000  0.4335  -1.6167   0.0000   0.2717
  -3.500  -0.4920   0.01183   0.00527   0.0165  1.0000  0.5048  -1.4242   0.0000   0.2787
  -3.000  -0.4472   0.01151   0.00521   0.0184  1.0000  0.5737  -1.2391   0.0000   0.2866
  -2.500  -0.4024   0.01132   0.00532   0.0202  1.0000  0.6426  -1.0828   0.0000   0.2962
  -2.000  -0.3386   0.01129   0.00556   0.0184  0.9938  0.7155  -0.9134   0.0000   0.3005
  -1.500  -0.2538   0.01127   0.00582   0.0131  0.9772  0.7851  -0.7451   0.0000   0.2978
  -1.000  -0.1717   0.01131   0.00599   0.0088  0.9584  0.8427  -0.6111   0.0000   0.2978
  -0.500  -0.0834   0.01139   0.00613   0.0038  0.9411  0.8857  -0.4995   0.0000   0.2918
   0.000  -0.0000   0.01142   0.00618   0.0000  0.9176  0.9176  -0.4125   0.0000   0.9826
   0.500   0.0834   0.01139   0.00613  -0.0038  0.8857  0.9411  -0.4995   0.0000   0.2918
   1.000   0.1717   0.01131   0.00599  -0.0088  0.8427  0.9584  -0.6111   0.0000   0.2978
   1.500   0.2537   0.01127   0.00582  -0.0131  0.7851  0.9773  -0.7451   0.0000   0.2978
   2.000   0.3386   0.01128   0.00555  -0.0184  0.7155  0.9938  -0.9134   0.0000   0.3005
   2.500   0.4023   0.01132   0.00532  -0.0202  0.6427  1.0000  -1.0826   0.0000   0.2962
   3.000   0.4471   0.01151   0.00521  -0.0183  0.5738  1.0000  -1.2389   0.0000   0.2866
   3.500   0.4919   0.01183   0.00527  -0.0165  0.5048  1.0000  -1.4239   0.0000   0.2787
   4.000   0.5354   0.01225   0.00543  -0.0144  0.4336  1.0000  -1.6164   0.0000   0.2717
   4.500   0.5774   0.01285   0.00572  -0.0120  0.3619  1.0000  -1.8116   0.0000   0.2653
   5.000   0.6176   0.01363   0.00617  -0.0094  0.2886  1.0000  -2.0423   0.0000   0.2593
   5.500   0.6564   0.01464   0.00687  -0.0066  0.2191  1.0000  -2.2784   0.0000   0.2537
   6.000   0.6946   0.01581   0.00778  -0.0037  0.1642  1.0000  -2.5110   0.0000   0.2485
   6.500   0.7320   0.01716   0.00894  -0.0006  0.1279  1.0000  -2.7395   0.0000   0.2436
   7.000   0.7683   0.01872   0.01032   0.0026  0.1042  1.0000  -2.9656   0.0000   0.2389
   7.500   0.8064   0.02035   0.01197   0.0056  0.0890  1.0000  -3.2476   0.0000   0.2349
   8.000   0.8460   0.02195   0.01363   0.0083  0.0770  1.0000  -3.5384   0.0000   0.2315
   8.500   0.8853   0.02416   0.01593   0.0108  0.0681  1.0000  -3.8194   0.0000   0.2286
   9.000   0.9254   0.02627   0.01809   0.0130  0.0615  1.0000  -4.1136   0.0000   0.2262
   9.500   0.9629   0.02980   0.02202   0.0154  0.0569  1.0000  -4.3452   0.0000   0.2238
  10.000   0.9975   0.03246   0.02502   0.0181  0.0522  1.0000  -4.5936   0.0000   0.2211
  10.500   1.0266   0.03653   0.02920   0.0203  0.0474  1.0000  -4.8441   0.0000   0.2188
  11.000   1.0426   0.04070   0.03400   0.0244  0.0457  1.0000  -4.9780   0.0000   0.2147
  11.500   1.0436   0.04581   0.03975   0.0290  0.0443  1.0000  -5.0343   0.0000   0.2096
  12.000   1.0194   0.05174   0.04623   0.0345  0.0435  1.0000  -5.0098   0.0000   0.2028
  12.500   0.9760   0.06027   0.05528   0.0355  0.0434  1.0000  -4.8797   0.0000   0.1993
  13.000   0.9099   0.07502   0.07052   0.0274  0.0442  1.0000  -4.5429   0.0000   0.2045
  13.500   0.7998   0.10542   0.10123   0.0066  0.0468  1.0000  -3.7061   0.0000   0.2257
  14.000   0.6891   0.15384   0.14966  -0.0159  0.0740  1.0000  -2.0745   0.0000   0.2587
  14.500   0.6972   0.16468   0.16049  -0.0171  0.0723  1.0000  -2.0951   0.0000   0.2596
  15.000   0.6746   0.17530   0.17104  -0.0287  0.0669  1.0000  -1.7726   0.0000   0.2773
  15.500   0.6861   0.18233   0.17807  -0.0315  0.0631  1.0000  -1.8115   0.0000   0.2799
  16.000   0.7069   0.18871   0.18446  -0.0320  0.0608  1.0000  -1.9495   0.0000   0.2787
  16.500   0.7296   0.19927   0.19508  -0.0311  0.0592  1.0000  -2.0998   0.0000   0.2754
  17.000   0.7185   0.20619   0.20192  -0.0412  0.0577  1.0000  -1.8314   0.0000   0.2896
  17.500   0.7284   0.21285   0.20859  -0.0463  0.0511  1.0000  -1.8029   0.0000   0.2951
  18.000   0.7495   0.21890   0.21467  -0.0471  0.0485  1.0000  -1.9465   0.0000   0.2936
  18.500   0.7707   0.23043   0.22622  -0.0473  0.0470  1.0000  -2.0280   0.0000   0.2915
  19.000   0.7673   0.23572   0.23146  -0.0579  0.0444  1.0000  -1.7085   0.0000   0.3050
  19.500   0.7816   0.24281   0.23855  -0.0621  0.0406  1.0000  -1.6739   0.0000   0.3082
  20.000   0.7982   0.24922   0.24498  -0.0651  0.0384  1.0000  -1.7155   0.0000   0.3095
  20.500   0.8185   0.25659   0.25237  -0.0661  0.0370  1.0000  -1.8407   0.0000   0.3078
  21.000   0.8371   0.26932   0.26513  -0.0676  0.0363  1.0000  -1.8958   0.0000   0.3072
  21.500   0.8470   0.27372   0.26952  -0.0744  0.0361  1.0000  -1.8320   0.0000   0.3134
  22.000   0.8579   0.27750   0.27328  -0.0826  0.0349  1.0000  -1.7234   0.0000   0.3209
  22.500   0.8733   0.28413   0.27993  -0.0878  0.0327  1.0000  -1.7265   0.0000   0.3242
  23.000   0.8890   0.29073   0.28654  -0.0922  0.0309  1.0000  -1.7667   0.0000   0.3264
  23.500   0.9046   0.29710   0.29293  -0.0962  0.0294  1.0000  -1.8274   0.0000   0.3281
  24.000   0.9210   0.30341   0.29927  -0.0990  0.0279  1.0000  -1.9624   0.0000   0.3281
  24.500   0.9398   0.31844   0.31434  -0.0989  0.0269  1.0000  -2.1303   0.0000   0.3250
  25.000   0.9501   0.32169   0.31759  -0.1062  0.0267  1.0000  -2.0041   0.0000   0.3304
  25.500   0.9633   0.32589   0.32179  -0.1146  0.0251  1.0000  -1.7962   0.0000   0.3366
  26.000   0.9781   0.33311   0.32902  -0.1195  0.0228  1.0000  -1.7615   0.0000   0.3387
  26.500   0.9924   0.33999   0.33592  -0.1240  0.0213  1.0000  -1.7696   0.0000   0.3403
  27.000   1.0065   0.34667   0.34262  -0.1282  0.0202  1.0000  -1.8074   0.0000   0.3415
  27.500   1.0201   0.35373   0.34971  -0.1318  0.0195  1.0000  -1.8825   0.0000   0.3420
  29.000   0.5692   0.24159   0.23843  -0.0587  0.0193  1.0000  -0.7941   0.0000   0.3329
  30.000   1.0830   0.39275   0.38884  -0.1562  0.0184  1.0000  -1.8813   0.0000   0.3504
  30.500   1.0959   0.39915   0.39526  -0.1622  0.0181  1.0000  -1.8763   0.0000   0.3528
  31.000   1.1087   0.40640   0.40255  -0.1676  0.0174  1.0000  -1.8848   0.0000   0.3546
  31.500   1.1206   0.41380   0.40998  -0.1728  0.0162  1.0000  -1.9097   0.0000   0.3561
  32.000   1.1319   0.42094   0.41716  -0.1778  0.0148  1.0000  -1.9495   0.0000   0.3574
  32.500   1.1427   0.42791   0.42417  -0.1827  0.0138  1.0000  -1.9958   0.0000   0.3585
  33.000   1.1529   0.43477   0.43105  -0.1875  0.0131  1.0000  -2.0529   0.0000   0.3595
  33.500   1.1621   0.44208   0.43840  -0.1916  0.0126  1.0000  -2.1410   0.0000   0.3600
  38.000   0.7119   0.40702   0.40437  -0.1225  0.0105  1.0000  -0.8086   0.0000   0.3740
  38.500   0.7163   0.41547   0.41285  -0.1259  0.0100  1.0000  -0.8321   0.0000   0.3758
  39.000   0.7201   0.42376   0.42117  -0.1293  0.0095  1.0000  -0.8545   0.0000   0.3775
  39.500   0.7236   0.43187   0.42932  -0.1326  0.0090  1.0000  -0.8752   0.0000   0.3792
  40.000   0.7266   0.43962   0.43711  -0.1359  0.0084  1.0000  -0.8975   0.0000   0.3808
  40.500   0.7291   0.44703   0.44456  -0.1392  0.0077  1.0000  -0.9262   0.0000   0.3824
  41.000   0.7317   0.45485   0.45242  -0.1426  0.0073  1.0000  -0.9581   0.0000   0.3839
  41.500   0.7361   0.46573   0.46333  -0.1461  0.0070  1.0000  -1.0144   0.0000   0.3847


