xflr5 v6.50

 Calculated polar for: NACA 0012

 1 1 Reynolds number fixed          Mach number fixed         

 xtrf =   1.000 (top)        1.000 (bottom)
 Mach =   0.000     Re =     0.225 e 6     Ncrit =   9.000

  alpha     CL        CD       CDp       Cm    Top Xtr Bot Xtr   Cpmin    Chinge    XCp    
 ------- -------- --------- --------- -------- ------- ------- -------- --------- ---------
 -46.500  -0.7238   0.51906   0.51729   0.1746  1.0000  0.0032  -0.8753   0.0000   0.4022
 -46.000  -0.7261   0.51388   0.51208   0.1719  1.0000  0.0033  -0.8331   0.0000   0.4009
 -45.500  -0.7286   0.50966   0.50783   0.1692  1.0000  0.0035  -0.8003   0.0000   0.3994
 -45.000  -0.7309   0.50537   0.50349   0.1665  1.0000  0.0036  -0.7950   0.0000   0.3978
 -44.500  -0.7327   0.50075   0.49884   0.1637  1.0000  0.0039  -0.7939   0.0000   0.3962
 -44.000  -0.7342   0.49574   0.49379   0.1610  1.0000  0.0041  -0.7963   0.0000   0.3946
 -43.500  -0.7352   0.49033   0.48835   0.1582  1.0000  0.0045  -0.8021   0.0000   0.3930
 -43.000  -0.7358   0.48452   0.48250   0.1553  1.0000  0.0049  -0.8114   0.0000   0.3914
 -42.500  -0.7360   0.47830   0.47624   0.1525  1.0000  0.0054  -0.8255   0.0000   0.3898
 -42.000  -0.7356   0.47167   0.46958   0.1496  1.0000  0.0061  -0.8488   0.0000   0.3882
 -41.500  -0.7347   0.46489   0.46276   0.1467  1.0000  0.0065  -0.8889   0.0000   0.3866
 -41.000  -0.7340   0.45837   0.45621   0.1438  1.0000  0.0067  -0.9403   0.0000   0.3848
 -40.500  -0.7334   0.45216   0.44997   0.1408  1.0000  0.0067  -0.9787   0.0000   0.3828
 -40.000  -0.7328   0.44605   0.44381   0.1377  1.0000  0.0068  -0.9998   0.0000   0.3807
 -37.500  -1.2344   0.48718   0.48416   0.2324  1.0000  0.0069  -2.1858   0.0000   0.3677
 -37.000  -1.2288   0.47620   0.47314   0.2292  1.0000  0.0072  -2.0923   0.0000   0.3681
 -36.500  -1.2219   0.46987   0.46677   0.2245  1.0000  0.0074  -2.0255   0.0000   0.3675
 -36.000  -1.2142   0.46387   0.46074   0.2195  1.0000  0.0077  -1.9780   0.0000   0.3666
 -35.500  -1.2058   0.45775   0.45459   0.2143  1.0000  0.0081  -1.9455   0.0000   0.3657
 -35.000  -1.1969   0.45143   0.44824   0.2091  1.0000  0.0086  -1.9260   0.0000   0.3646
 -34.500  -1.1874   0.44490   0.44168   0.2040  1.0000  0.0093  -1.9192   0.0000   0.3635
 -34.000  -1.1774   0.43809   0.43485   0.1987  1.0000  0.0103  -1.9294   0.0000   0.3623
 -33.500  -1.1655   0.43083   0.42754   0.1932  1.0000  0.0116  -2.0046   0.0000   0.3609
 -33.000  -1.1531   0.42507   0.42176   0.1865  1.0000  0.0119  -2.1342   0.0000   0.3584
 -32.500  -1.1421   0.41990   0.41658   0.1802  1.0000  0.0120  -2.1957   0.0000   0.3560
 -32.000  -1.1314   0.41468   0.41134   0.1741  1.0000  0.0121  -2.2224   0.0000   0.3538
 -31.500  -1.1208   0.40523   0.40189   0.1693  1.0000  0.0123  -2.2178   0.0000   0.3524
 -31.000  -1.1100   0.39490   0.39152   0.1668  1.0000  0.0127  -2.0642   0.0000   0.3532
 -30.500  -1.0985   0.38847   0.38504   0.1624  1.0000  0.0130  -1.9654   0.0000   0.3524
 -30.000  -1.0865   0.38220   0.37875   0.1578  1.0000  0.0135  -1.8841   0.0000   0.3513
 -29.500  -1.0740   0.37585   0.37238   0.1530  1.0000  0.0140  -1.8127   0.0000   0.3501
 -29.000  -1.0612   0.36937   0.36587   0.1482  1.0000  0.0146  -1.7487   0.0000   0.3487
 -28.500  -1.0480   0.36276   0.35924   0.1434  1.0000  0.0154  -1.7072   0.0000   0.3472
 -28.000  -1.0345   0.35600   0.35246   0.1386  1.0000  0.0163  -1.7093   0.0000   0.3456
 -27.500  -1.0203   0.34905   0.34547   0.1335  1.0000  0.0176  -1.7379   0.0000   0.3437
 -27.000  -1.0055   0.34269   0.33910   0.1272  1.0000  0.0184  -1.8450   0.0000   0.3405
 -26.500  -0.9923   0.33737   0.33378   0.1207  1.0000  0.0187  -1.9588   0.0000   0.3367
 -26.000  -0.9803   0.33225   0.32865   0.1143  1.0000  0.0188  -2.0861   0.0000   0.3328
 -25.500  -0.9654   0.31967   0.31607   0.1120  1.0000  0.0193  -2.0728   0.0000   0.3332
 -25.000  -0.9498   0.31305   0.30942   0.1094  1.0000  0.0202  -1.9387   0.0000   0.3336
 -24.500  -0.9346   0.30716   0.30350   0.1055  1.0000  0.0216  -1.8747   0.0000   0.3325
 -24.000  -0.9193   0.30082   0.29714   0.1011  1.0000  0.0235  -1.8482   0.0000   0.3306
 -23.500  -0.9038   0.29438   0.29068   0.0952  1.0000  0.0261  -1.9005   0.0000   0.3269
 -23.000  -0.8930   0.29124   0.28755   0.0869  1.0000  0.0268  -2.0332   0.0000   0.3199
 -22.500  -0.8799   0.28558   0.28189   0.0813  1.0000  0.0269  -2.0550   0.0000   0.3159
 -22.000  -0.8639   0.27394   0.27025   0.0786  1.0000  0.0274  -2.0007   0.0000   0.3152
 -21.500  -0.8448   0.26650   0.26279   0.0771  1.0000  0.0281  -1.8247   0.0000   0.3165
 -21.000  -0.8276   0.26076   0.25701   0.0740  1.0000  0.0292  -1.7076   0.0000   0.3156
 -20.500  -0.8111   0.25487   0.25111   0.0702  1.0000  0.0306  -1.6432   0.0000   0.3137
 -20.000  -0.7954   0.24842   0.24465   0.0661  1.0000  0.0326  -1.6497   0.0000   0.3111
 -19.500  -0.7859   0.24137   0.23761   0.0586  1.0000  0.0358  -1.8398   0.0000   0.3031
 -19.000  -0.7797   0.23437   0.23064   0.0515  1.0000  0.0363  -2.0346   0.0000   0.2953
 -18.500  -0.7609   0.22377   0.22004   0.0511  1.0000  0.0377  -1.9691   0.0000   0.2971
 -18.000  -0.7416   0.21817   0.21441   0.0496  1.0000  0.0399  -1.8489   0.0000   0.2977
 -17.500  -0.7277   0.21133   0.20757   0.0461  1.0000  0.0434  -1.8372   0.0000   0.2948
 -17.000  -0.7321   0.20299   0.19926   0.0362  1.0000  0.0469  -2.1183   0.0000   0.2814
 -16.500  -0.7201   0.19299   0.18924   0.0343  1.0000  0.0484  -2.0823   0.0000   0.2802
 -16.000  -0.6971   0.18768   0.18391   0.0343  1.0000  0.0505  -1.8886   0.0000   0.2825
 -15.500  -0.6849   0.18075   0.17698   0.0314  1.0000  0.0530  -1.8422   0.0000   0.2799
 -15.000  -0.6886   0.17127   0.16752   0.0243  1.0000  0.0581  -1.9967   0.0000   0.2697
 -14.000  -0.9067   0.08780   0.08380  -0.0178  1.0000  0.0356  -4.8738   0.0000   0.2129
 -13.500  -0.9806   0.06802   0.06361  -0.0313  1.0000  0.0349  -5.3524   0.0000   0.2017
 -13.000  -1.0282   0.05635   0.05147  -0.0365  1.0000  0.0349  -5.5530   0.0000   0.1993
 -12.500  -1.0597   0.04888   0.04351  -0.0357  1.0000  0.0353  -5.6056   0.0000   0.2021
 -12.000  -1.0761   0.04405   0.03820  -0.0310  1.0000  0.0359  -5.5402   0.0000   0.2077
 -11.500  -1.0828   0.03846   0.03200  -0.0257  1.0000  0.0369  -5.4770   0.0000   0.2135
 -11.000  -1.0655   0.03348   0.02669  -0.0225  1.0000  0.0390  -5.3103   0.0000   0.2167
 -10.500  -1.0359   0.03080   0.02381  -0.0197  1.0000  0.0414  -5.0414   0.0000   0.2194
 -10.000  -1.0023   0.02848   0.02120  -0.0171  1.0000  0.0449  -4.7668   0.0000   0.2221
  -9.500  -0.9676   0.02558   0.01801  -0.0145  1.0000  0.0494  -4.5044   0.0000   0.2247
  -9.000  -0.9292   0.02363   0.01597  -0.0122  1.0000  0.0542  -4.1997   0.0000   0.2271
  -8.500  -0.8882   0.02212   0.01422  -0.0098  1.0000  0.0592  -3.8975   0.0000   0.2298
  -8.000  -0.8523   0.01984   0.01199  -0.0068  1.0000  0.0674  -3.6156   0.0000   0.2333
  -7.500  -0.8147   0.01831   0.01045  -0.0039  1.0000  0.0781  -3.3206   0.0000   0.2370
  -7.000  -0.7770   0.01696   0.00907  -0.0008  1.0000  0.0922  -3.0262   0.0000   0.2413
  -6.500  -0.7390   0.01571   0.00791   0.0023  1.0000  0.1123  -2.7848   0.0000   0.2459
  -6.000  -0.7006   0.01456   0.00693   0.0053  1.0000  0.1450  -2.5456   0.0000   0.2507
  -5.500  -0.6615   0.01353   0.00614   0.0080  1.0000  0.1937  -2.3057   0.0000   0.2558
  -5.000  -0.6214   0.01262   0.00551   0.0106  1.0000  0.2575  -2.0631   0.0000   0.2610
  -4.500  -0.5798   0.01191   0.00510   0.0128  1.0000  0.3262  -1.8255   0.0000   0.2666
  -4.000  -0.5365   0.01139   0.00483   0.0148  1.0000  0.3960  -1.6257   0.0000   0.2725
  -3.500  -0.4918   0.01095   0.00471   0.0165  1.0000  0.4650  -1.4301   0.0000   0.2788
  -3.000  -0.4462   0.01068   0.00466   0.0180  1.0000  0.5333  -1.2423   0.0000   0.2860
  -2.500  -0.3678   0.01037   0.00468   0.0131  0.9897  0.6116  -1.0330   0.0000   0.2813
  -2.000  -0.2863   0.01009   0.00467   0.0079  0.9753  0.6852  -0.8474   0.0000   0.2734
  -1.500  -0.2039   0.00980   0.00465   0.0030  0.9614  0.7507  -0.6926   0.0000   0.2607
  -1.000  -0.1252   0.00955   0.00460  -0.0006  0.9453  0.8065  -0.5716   0.0000   0.2408
  -0.500  -0.0594   0.00937   0.00453  -0.0012  0.9219  0.8533  -0.4833   0.0000   0.2263
   0.000   0.0000   0.00934   0.00456  -0.0000  0.8901  0.8901  -0.4135   0.0000   0.4792
   0.500   0.0594   0.00937   0.00453   0.0012  0.8533  0.9219  -0.4833   0.0000   0.2262
   1.000   0.1252   0.00955   0.00460   0.0006  0.8065  0.9453  -0.5716   0.0000   0.2408
   1.500   0.2039   0.00980   0.00465  -0.0030  0.7507  0.9614  -0.6926   0.0000   0.2607
   2.000   0.2863   0.01008   0.00467  -0.0079  0.6852  0.9753  -0.8474   0.0000   0.2734
   2.500   0.3678   0.01036   0.00468  -0.0131  0.6116  0.9898  -1.0330   0.0000   0.2813
   3.000   0.4461   0.01067   0.00465  -0.0180  0.5334  1.0000  -1.2421   0.0000   0.2859
   3.500   0.4917   0.01095   0.00470  -0.0165  0.4651  1.0000  -1.4298   0.0000   0.2788
   4.000   0.5363   0.01138   0.00483  -0.0148  0.3961  1.0000  -1.6254   0.0000   0.2724
   4.500   0.5796   0.01191   0.00510  -0.0128  0.3262  1.0000  -1.8251   0.0000   0.2665
   5.000   0.6213   0.01262   0.00551  -0.0105  0.2576  1.0000  -2.0628   0.0000   0.2610
   5.500   0.6614   0.01352   0.00613  -0.0080  0.1938  1.0000  -2.3054   0.0000   0.2557
   6.000   0.7005   0.01456   0.00692  -0.0052  0.1450  1.0000  -2.5454   0.0000   0.2507
   6.500   0.7389   0.01570   0.00790  -0.0023  0.1124  1.0000  -2.7846   0.0000   0.2458
   7.000   0.7769   0.01695   0.00907   0.0008  0.0922  1.0000  -3.0260   0.0000   0.2413
   7.500   0.8147   0.01830   0.01044   0.0039  0.0781  1.0000  -3.3205   0.0000   0.2370
   8.000   0.8523   0.01983   0.01199   0.0068  0.0674  1.0000  -3.6156   0.0000   0.2333
   8.500   0.8883   0.02212   0.01421   0.0098  0.0592  1.0000  -3.8977   0.0000   0.2298
   9.000   0.9293   0.02363   0.01597   0.0122  0.0542  1.0000  -4.2001   0.0000   0.2271
   9.500   0.9678   0.02558   0.01802   0.0145  0.0494  1.0000  -4.5049   0.0000   0.2247
  10.000   1.0026   0.02848   0.02120   0.0170  0.0449  1.0000  -4.7676   0.0000   0.2221
  10.500   1.0362   0.03080   0.02381   0.0197  0.0414  1.0000  -5.0424   0.0000   0.2195
  11.000   1.0659   0.03348   0.02670   0.0224  0.0390  1.0000  -5.3117   0.0000   0.2168
  11.500   1.0832   0.03850   0.03204   0.0256  0.0369  1.0000  -5.4772   0.0000   0.2136
  12.000   1.0768   0.04406   0.03821   0.0309  0.0359  1.0000  -5.5429   0.0000   0.2079
  12.500   1.0605   0.04892   0.04354   0.0355  0.0353  1.0000  -5.6085   0.0000   0.2023
  13.000   1.0292   0.05642   0.05154   0.0362  0.0349  1.0000  -5.5554   0.0000   0.1996
  13.500   0.9816   0.06816   0.06376   0.0309  0.0349  1.0000  -5.3529   0.0000   0.2022
  14.000   0.9072   0.08820   0.08421   0.0172  0.0356  1.0000  -4.8659   0.0000   0.2137
  15.000   0.1871   0.03824   0.03540   0.0282  0.0741  1.0000  -0.7216   0.0000   0.1122
  15.500   0.2034   0.04414   0.04126   0.0264  0.0720  1.0000  -0.7197   0.0000   0.1313
  16.000   0.2006   0.04766   0.04477   0.0219  0.0643  1.0000  -0.5905   0.0000   0.1530
  16.500   0.2290   0.05217   0.04926   0.0219  0.0602  1.0000  -0.7218   0.0000   0.1630
  17.000   0.2460   0.05963   0.05670   0.0193  0.0589  1.0000  -0.7366   0.0000   0.1785
  17.500   0.2431   0.06338   0.06043   0.0142  0.0546  1.0000  -0.6062   0.0000   0.1995
  18.000   0.2589   0.06859   0.06566   0.0118  0.0509  1.0000  -0.6418   0.0000   0.2111
  18.500   0.2795   0.07411   0.07117   0.0100  0.0486  1.0000  -0.7329   0.0000   0.2187
  19.000   0.3031   0.08297   0.08001   0.0081  0.0469  1.0000  -0.8078   0.0000   0.2258
  19.500   0.3035   0.08682   0.08386   0.0032  0.0429  1.0000  -0.6627   0.0000   0.2425
  20.000   0.3200   0.09282   0.08986   0.0006  0.0389  1.0000  -0.6848   0.0000   0.2497
  20.500   0.3497   0.10184   0.09890  -0.0003  0.0366  1.0000  -0.8391   0.0000   0.2498
  21.000   0.3611   0.11030   0.10733  -0.0042  0.0361  1.0000  -0.7526   0.0000   0.2598
  21.500   0.3649   0.11486   0.11190  -0.0088  0.0349  1.0000  -0.6161   0.0000   0.2721
  22.000   0.3782   0.12168   0.11872  -0.0121  0.0321  1.0000  -0.5994   0.0000   0.2792
  22.500   0.3932   0.12880   0.12585  -0.0151  0.0301  1.0000  -0.6457   0.0000   0.2845
  23.000   0.4088   0.13601   0.13307  -0.0181  0.0287  1.0000  -0.7099   0.0000   0.2889
  23.500   0.4268   0.14413   0.14119  -0.0208  0.0277  1.0000  -0.8066   0.0000   0.2918
  24.000   0.4522   0.15804   0.15511  -0.0229  0.0269  1.0000  -0.9357   0.0000   0.2920
  24.500   0.4585   0.16391   0.16098  -0.0273  0.0267  1.0000  -0.8722   0.0000   0.3001
  25.000   0.4639   0.16859   0.16569  -0.0315  0.0251  1.0000  -0.7635   0.0000   0.3082
  25.500   0.4770   0.17671   0.17382  -0.0349  0.0223  1.0000  -0.7496   0.0000   0.3123
  26.000   0.4909   0.18482   0.18194  -0.0381  0.0204  1.0000  -0.7721   0.0000   0.3155
  26.500   0.5071   0.19398   0.19111  -0.0411  0.0194  1.0000  -0.8445   0.0000   0.3172
  27.000   0.5280   0.20889   0.20603  -0.0441  0.0188  1.0000  -0.9031   0.0000   0.3179
  27.500   0.5368   0.21675   0.21390  -0.0480  0.0187  1.0000  -0.8355   0.0000   0.3229
  28.000   0.5454   0.22419   0.22135  -0.0519  0.0186  1.0000  -0.7758   0.0000   0.3276
  28.500   0.5541   0.23138   0.22856  -0.0556  0.0182  1.0000  -0.7190   0.0000   0.3319
  29.000   0.5643   0.23940   0.23660  -0.0592  0.0174  1.0000  -0.7059   0.0000   0.3354
  29.500   0.5753   0.24824   0.24546  -0.0627  0.0163  1.0000  -0.7346   0.0000   0.3382
  30.000   0.5861   0.25716   0.25440  -0.0662  0.0154  1.0000  -0.7690   0.0000   0.3408
  30.500   0.5966   0.26605   0.26333  -0.0697  0.0146  1.0000  -0.8045   0.0000   0.3433
  31.000   0.6069   0.27480   0.27210  -0.0732  0.0138  1.0000  -0.8459   0.0000   0.3456
  31.500   0.6174   0.28349   0.28081  -0.0767  0.0129  1.0000  -0.9143   0.0000   0.3475
  32.000   0.6326   0.29671   0.29405  -0.0800  0.0123  1.0000  -1.0328   0.0000   0.3477
  32.500   0.6436   0.30943   0.30678  -0.0838  0.0121  1.0000  -1.0279   0.0000   0.3498
  33.000   0.6489   0.31703   0.31441  -0.0876  0.0120  1.0000  -0.9448   0.0000   0.3534
  33.500   0.6544   0.32448   0.32188  -0.0913  0.0117  1.0000  -0.8583   0.0000   0.3567
  34.000   0.6614   0.33292   0.33035  -0.0947  0.0111  1.0000  -0.8019   0.0000   0.3592
  34.500   0.6691   0.34222   0.33967  -0.0982  0.0102  1.0000  -0.7822   0.0000   0.3613
  35.000   0.6763   0.35142   0.34889  -0.1018  0.0094  1.0000  -0.7764   0.0000   0.3632
  35.500   0.6832   0.36042   0.35794  -0.1053  0.0088  1.0000  -0.7768   0.0000   0.3651
  36.000   0.6896   0.36922   0.36676  -0.1088  0.0083  1.0000  -0.7821   0.0000   0.3670
  36.500   0.6955   0.37783   0.37540  -0.1123  0.0079  1.0000  -0.7926   0.0000   0.3688
  37.000   0.7012   0.38634   0.38394  -0.1157  0.0076  1.0000  -0.8096   0.0000   0.3705
  37.500   0.7067   0.39508   0.39270  -0.1192  0.0073  1.0000  -0.8550   0.0000   0.3721
  38.000   0.7133   0.40536   0.40303  -0.1228  0.0071  1.0000  -0.9211   0.0000   0.3733


