xflr5 v6.50

 Calculated polar for: NACA 0012

 1 1 Reynolds number fixed          Mach number fixed         

 xtrf =   1.000 (top)        1.000 (bottom)
 Mach =   0.000     Re =     0.200 e 6     Ncrit =   9.000

  alpha     CL        CD       CDp       Cm    Top Xtr Bot Xtr   Cpmin    Chinge    XCp    
 ------- -------- --------- --------- -------- ------- ------- -------- --------- ---------
 -40.000  -0.7321   0.44365   0.44130   0.1375  1.0000  0.0070  -1.0144   0.0000   0.3805
 -39.500  -0.7284   0.43473   0.43235   0.1343  1.0000  0.0073  -0.9491   0.0000   0.3795
 -39.000  -0.7258   0.42758   0.42516   0.1311  1.0000  0.0076  -0.9095   0.0000   0.3780
 -38.500  -0.7229   0.42045   0.41801   0.1280  1.0000  0.0079  -0.8752   0.0000   0.3763
 -38.000  -0.7196   0.41317   0.41069   0.1248  1.0000  0.0083  -0.8425   0.0000   0.3746
 -37.500  -0.7160   0.40570   0.40317   0.1215  1.0000  0.0086  -0.8107   0.0000   0.3729
 -37.000  -0.7119   0.39803   0.39547   0.1183  1.0000  0.0091  -0.7794   0.0000   0.3711
 -36.500  -0.7074   0.39016   0.38757   0.1150  1.0000  0.0096  -0.7793   0.0000   0.3693
 -36.000  -0.7025   0.38211   0.37949   0.1117  1.0000  0.0102  -0.7859   0.0000   0.3675
 -35.500  -0.6972   0.37392   0.37126   0.1085  1.0000  0.0109  -0.7991   0.0000   0.3656
 -35.000  -0.6916   0.36581   0.36311   0.1052  1.0000  0.0115  -0.8270   0.0000   0.3636
 -34.500  -0.6863   0.35816   0.35543   0.1018  1.0000  0.0118  -0.8736   0.0000   0.3612
 -34.000  -0.6816   0.35084   0.34809   0.0983  1.0000  0.0120  -0.9362   0.0000   0.3584
 -33.500  -0.6774   0.34365   0.34087   0.0947  1.0000  0.0121  -1.0162   0.0000   0.3552
 -33.000  -0.6710   0.33381   0.33103   0.0910  1.0000  0.0122  -1.0828   0.0000   0.3524
 -32.500  -0.6574   0.32039   0.31757   0.0881  1.0000  0.0128  -0.9763   0.0000   0.3527
 -32.000  -0.6486   0.31200   0.30916   0.0848  1.0000  0.0135  -0.9273   0.0000   0.3511
 -31.500  -0.6400   0.30394   0.30106   0.0814  1.0000  0.0147  -0.8917   0.0000   0.3492
 -31.000  -0.6312   0.29569   0.29279   0.0781  1.0000  0.0162  -0.8650   0.0000   0.3469
 -30.500  -0.6221   0.28726   0.28433   0.0746  1.0000  0.0172  -0.8459   0.0000   0.3445
 -30.000  -0.6132   0.27918   0.27622   0.0712  1.0000  0.0180  -0.8366   0.0000   0.3418
 -29.500  -0.6052   0.27185   0.26885   0.0676  1.0000  0.0184  -0.8397   0.0000   0.3384
 -29.000  -0.5976   0.26469   0.26167   0.0639  1.0000  0.0186  -0.8430   0.0000   0.3347
 -28.500  -0.5899   0.25735   0.25431   0.0601  1.0000  0.0187  -0.8876   0.0000   0.3307
 -28.000  -0.5821   0.24977   0.24672   0.0562  1.0000  0.0188  -0.9434   0.0000   0.3264
 -27.500  -0.5646   0.23586   0.23281   0.0534  1.0000  0.0192  -0.9009   0.0000   0.3258
 -27.000  -0.5494   0.22621   0.22314   0.0505  1.0000  0.0200  -0.8271   0.0000   0.3248
 -26.500  -0.9935   0.33531   0.33152   0.1203  1.0000  0.0191  -2.0414   0.0000   0.3360
 -26.000  -0.9784   0.32698   0.32316   0.1181  1.0000  0.0199  -1.9071   0.0000   0.3370
 -25.500  -0.9636   0.32089   0.31705   0.1143  1.0000  0.0210  -1.8409   0.0000   0.3361
 -25.000  -0.9487   0.31458   0.31072   0.1100  1.0000  0.0227  -1.8220   0.0000   0.3346
 -24.500  -0.9334   0.30779   0.30389   0.1050  1.0000  0.0255  -1.8596   0.0000   0.3321
 -24.000  -0.9205   0.30372   0.29982   0.0969  1.0000  0.0267  -2.0196   0.0000   0.3259
 -23.500  -0.9106   0.30102   0.29714   0.0895  1.0000  0.0269  -2.1237   0.0000   0.3199
 -23.000  -0.8911   0.28675   0.28284   0.0893  1.0000  0.0277  -1.9596   0.0000   0.3226
 -22.500  -0.8741   0.28030   0.27637   0.0865  1.0000  0.0286  -1.8329   0.0000   0.3224
 -22.000  -0.8577   0.27437   0.27043   0.0828  1.0000  0.0297  -1.7438   0.0000   0.3211
 -21.500  -0.8416   0.26831   0.26436   0.0788  1.0000  0.0311  -1.6781   0.0000   0.3191
 -21.000  -0.8257   0.26200   0.25801   0.0744  1.0000  0.0331  -1.6338   0.0000   0.3165
 -20.500  -0.8127   0.25616   0.25218   0.0674  1.0000  0.0357  -1.7355   0.0000   0.3100
 -20.000  -0.8058   0.25107   0.24711   0.0598  1.0000  0.0362  -1.9143   0.0000   0.3021
 -19.500  -0.7931   0.24010   0.23616   0.0563  1.0000  0.0369  -1.9873   0.0000   0.2994
 -19.000  -0.7693   0.23284   0.22886   0.0566  1.0000  0.0385  -1.8081   0.0000   0.3029
 -18.500  -0.7527   0.22667   0.22269   0.0538  1.0000  0.0412  -1.7605   0.0000   0.3017
 -18.000  -0.7471   0.21958   0.21561   0.0463  1.0000  0.0465  -1.9402   0.0000   0.2928
 -17.000  -0.7201   0.20295   0.19895   0.0406  1.0000  0.0494  -1.9131   0.0000   0.2885
 -16.500  -0.7023   0.19723   0.19322   0.0388  1.0000  0.0530  -1.7963   0.0000   0.2882
 -16.000  -0.6979   0.18932   0.18532   0.0330  1.0000  0.0577  -1.8798   0.0000   0.2808
 -15.500  -0.7076   0.18000   0.17605   0.0238  1.0000  0.0591  -2.1233   0.0000   0.2675
 -15.000  -0.6970   0.16948   0.16554   0.0228  1.0000  0.0606  -2.0782   0.0000   0.2671
 -14.500  -0.6755   0.16387   0.15991   0.0231  1.0000  0.0627  -1.9105   0.0000   0.2692
 -14.000  -0.7269   0.13562   0.13170   0.0088  1.0000  0.0479  -2.7982   0.0000   0.2465
 -13.500  -0.9815   0.06902   0.06435  -0.0326  1.0000  0.0372  -5.3175   0.0000   0.2005
 -13.000  -1.0273   0.05815   0.05302  -0.0369  1.0000  0.0371  -5.4975   0.0000   0.1989
 -12.500  -1.0619   0.05004   0.04446  -0.0357  1.0000  0.0376  -5.5719   0.0000   0.2022
 -12.000  -1.0744   0.04462   0.03872  -0.0316  1.0000  0.0386  -5.4811   0.0000   0.2072
 -11.500  -1.0699   0.04071   0.03448  -0.0273  1.0000  0.0401  -5.3015   0.0000   0.2118
 -11.000  -1.0541   0.03694   0.03032  -0.0236  1.0000  0.0420  -5.1288   0.0000   0.2155
 -10.500  -1.0300   0.03338   0.02632  -0.0203  1.0000  0.0444  -4.9338   0.0000   0.2188
 -10.000  -1.0001   0.03073   0.02320  -0.0172  1.0000  0.0476  -4.6978   0.0000   0.2219
  -9.500  -0.9654   0.02740   0.01980  -0.0150  1.0000  0.0527  -4.4242   0.0000   0.2241
  -9.000  -0.9263   0.02523   0.01732  -0.0126  1.0000  0.0575  -4.1481   0.0000   0.2266
  -8.500  -0.8879   0.02252   0.01451  -0.0102  1.0000  0.0635  -3.8753   0.0000   0.2293
  -8.000  -0.8475   0.02107   0.01294  -0.0077  1.0000  0.0714  -3.5726   0.0000   0.2322
  -7.500  -0.8100   0.01934   0.01126  -0.0048  1.0000  0.0832  -3.2804   0.0000   0.2358
  -7.000  -0.7728   0.01777   0.00967  -0.0017  1.0000  0.0977  -2.9954   0.0000   0.2401
  -6.500  -0.7344   0.01649   0.00841   0.0014  1.0000  0.1190  -2.7608   0.0000   0.2446
  -6.000  -0.6973   0.01517   0.00733   0.0045  1.0000  0.1540  -2.5282   0.0000   0.2496
  -5.500  -0.6593   0.01400   0.00645   0.0074  1.0000  0.2047  -2.2940   0.0000   0.2549
  -5.000  -0.6197   0.01306   0.00580   0.0100  1.0000  0.2717  -2.0537   0.0000   0.2602
  -4.500  -0.5783   0.01235   0.00537   0.0124  1.0000  0.3427  -1.8182   0.0000   0.2659
  -4.000  -0.5360   0.01176   0.00510   0.0146  1.0000  0.4138  -1.6216   0.0000   0.2721
  -3.500  -0.4917   0.01134   0.00495   0.0165  1.0000  0.4832  -1.4272   0.0000   0.2787
  -3.000  -0.4466   0.01103   0.00490   0.0181  1.0000  0.5522  -1.2407   0.0000   0.2862
  -2.500  -0.3931   0.01085   0.00498   0.0181  0.9975  0.6233  -1.0709   0.0000   0.2920
  -2.000  -0.3086   0.01065   0.00511   0.0123  0.9833  0.6994  -0.8754   0.0000   0.2860
  -1.000  -0.1457   0.01034   0.00520   0.0034  0.9498  0.8243  -0.5891   0.0000   0.2694
  -0.500  -0.0701   0.01026   0.00524   0.0010  0.9295  0.8683  -0.4905   0.0000   0.2606
   0.000   0.0000   0.01020   0.00521  -0.0000  0.9036  0.9036  -0.4131   0.0000   0.4606
   0.500   0.0701   0.01026   0.00524  -0.0010  0.8683  0.9295  -0.4905   0.0000   0.2606
   1.000   0.1457   0.01034   0.00520  -0.0034  0.8243  0.9498  -0.5891   0.0000   0.2694
   2.000   0.3086   0.01064   0.00511  -0.0123  0.6994  0.9834  -0.8754   0.0000   0.2860
   2.500   0.3931   0.01085   0.00498  -0.0181  0.6233  0.9975  -1.0709   0.0000   0.2920
   3.000   0.4464   0.01103   0.00490  -0.0181  0.5523  1.0000  -1.2405   0.0000   0.2861
   3.500   0.4916   0.01134   0.00494  -0.0164  0.4833  1.0000  -1.4269   0.0000   0.2786
   4.000   0.5359   0.01176   0.00509  -0.0146  0.4139  1.0000  -1.6214   0.0000   0.2720
   4.500   0.5782   0.01235   0.00537  -0.0124  0.3428  1.0000  -1.8179   0.0000   0.2659
   5.000   0.6196   0.01306   0.00580  -0.0100  0.2718  1.0000  -2.0534   0.0000   0.2602
   5.500   0.6592   0.01399   0.00645  -0.0074  0.2048  1.0000  -2.2937   0.0000   0.2548
   6.000   0.6972   0.01517   0.00732  -0.0045  0.1540  1.0000  -2.5279   0.0000   0.2496
   6.500   0.7344   0.01648   0.00841  -0.0014  0.1190  1.0000  -2.7606   0.0000   0.2446
   7.000   0.7728   0.01777   0.00967   0.0017  0.0977  1.0000  -2.9953   0.0000   0.2401
   7.500   0.8100   0.01933   0.01125   0.0048  0.0832  1.0000  -3.2803   0.0000   0.2358
   8.000   0.8475   0.02107   0.01293   0.0077  0.0714  1.0000  -3.5727   0.0000   0.2322
   8.500   0.8880   0.02252   0.01451   0.0102  0.0635  1.0000  -3.8755   0.0000   0.2293
   9.000   0.9264   0.02523   0.01732   0.0126  0.0575  1.0000  -4.1484   0.0000   0.2266
   9.500   0.9655   0.02740   0.01980   0.0150  0.0527  1.0000  -4.4247   0.0000   0.2241
  10.000   1.0003   0.03075   0.02323   0.0172  0.0475  1.0000  -4.6978   0.0000   0.2220
  10.500   1.0303   0.03339   0.02633   0.0203  0.0444  1.0000  -4.9346   0.0000   0.2189
  11.000   1.0545   0.03695   0.03033   0.0236  0.0420  1.0000  -5.1299   0.0000   0.2156
  11.500   1.0704   0.04072   0.03449   0.0272  0.0401  1.0000  -5.3032   0.0000   0.2119
  12.000   1.0753   0.04464   0.03873   0.0314  0.0386  1.0000  -5.4845   0.0000   0.2073
  12.500   1.0627   0.05010   0.04452   0.0355  0.0375  1.0000  -5.5745   0.0000   0.2024
  13.000   1.0280   0.05826   0.05314   0.0367  0.0371  1.0000  -5.4981   0.0000   0.1992
  13.500   0.9823   0.06918   0.06452   0.0323  0.0372  1.0000  -5.3173   0.0000   0.2009
  14.500   0.6782   0.16402   0.16007  -0.0234  0.0627  1.0000  -1.9183   0.0000   0.2696
  15.000   0.6997   0.16964   0.16570  -0.0231  0.0605  1.0000  -2.0887   0.0000   0.2674
  16.000   0.6987   0.18974   0.18574  -0.0339  0.0575  1.0000  -1.8654   0.0000   0.2820
  16.500   0.7046   0.19765   0.19365  -0.0393  0.0528  1.0000  -1.8004   0.0000   0.2887
  17.000   0.7227   0.20336   0.19936  -0.0410  0.0493  1.0000  -1.9233   0.0000   0.2888
  18.000   0.7482   0.22017   0.21620  -0.0471  0.0464  1.0000  -1.9292   0.0000   0.2937
  18.500   0.7546   0.22747   0.22349  -0.0543  0.0411  1.0000  -1.7623   0.0000   0.3022
  19.000   0.7713   0.23372   0.22974  -0.0570  0.0384  1.0000  -1.8124   0.0000   0.3033
  19.500   0.7953   0.24122   0.23728  -0.0565  0.0368  1.0000  -1.9964   0.0000   0.2995
  20.000   0.8073   0.25216   0.24820  -0.0603  0.0362  1.0000  -1.9118   0.0000   0.3025
  20.500   0.8139   0.25750   0.25352  -0.0680  0.0357  1.0000  -1.7298   0.0000   0.3106
  21.000   0.8272   0.26369   0.25970  -0.0749  0.0330  1.0000  -1.6350   0.0000   0.3169
  21.500   0.8431   0.27019   0.26624  -0.0792  0.0311  1.0000  -1.6799   0.0000   0.3195
  22.000   0.8592   0.27645   0.27251  -0.0833  0.0296  1.0000  -1.7459   0.0000   0.3215
  22.500   0.8755   0.28257   0.27865  -0.0869  0.0285  1.0000  -1.8356   0.0000   0.3228
  23.000   0.8924   0.28925   0.28534  -0.0897  0.0277  1.0000  -1.9632   0.0000   0.3229
  23.500   0.9114   0.30351   0.29963  -0.0899  0.0269  1.0000  -2.1210   0.0000   0.3203
  24.000   0.9214   0.30657   0.30268  -0.0975  0.0267  1.0000  -2.0147   0.0000   0.3264
  24.500   0.9345   0.31119   0.30730  -0.1055  0.0254  1.0000  -1.8545   0.0000   0.3326
  25.000   0.9497   0.31830   0.31444  -0.1105  0.0227  1.0000  -1.8202   0.0000   0.3350
  25.500   0.9646   0.32491   0.32108  -0.1148  0.0209  1.0000  -1.8402   0.0000   0.3365
  26.000   0.9792   0.33131   0.32750  -0.1185  0.0198  1.0000  -1.9075   0.0000   0.3373
  26.500   0.9941   0.34015   0.33637  -0.1205  0.0191  1.0000  -2.0442   0.0000   0.3362
  27.000   1.0078   0.35233   0.34855  -0.1239  0.0188  1.0000  -2.0208   0.0000   0.3369
  27.500   1.0199   0.35791   0.35414  -0.1300  0.0187  1.0000  -1.9288   0.0000   0.3403
  28.000   1.0325   0.36363   0.35988  -0.1362  0.0186  1.0000  -1.8464   0.0000   0.3435
  28.500   1.0460   0.36971   0.36597  -0.1425  0.0183  1.0000  -1.7649   0.0000   0.3465
  29.000   1.0600   0.37679   0.37308  -0.1482  0.0175  1.0000  -1.7333   0.0000   0.3489
  29.500   1.0732   0.38418   0.38049  -0.1532  0.0165  1.0000  -1.7675   0.0000   0.3505
  30.000   1.0857   0.39146   0.38780  -0.1582  0.0157  1.0000  -1.8123   0.0000   0.3520
  30.500   1.0979   0.39865   0.39502  -0.1631  0.0149  1.0000  -1.8610   0.0000   0.3534
  31.000   1.1097   0.40574   0.40215  -0.1680  0.0143  1.0000  -1.9139   0.0000   0.3547
  31.500   1.1210   0.41248   0.40892  -0.1728  0.0135  1.0000  -1.9854   0.0000   0.3559
  32.000   1.1314   0.41906   0.41554  -0.1771  0.0128  1.0000  -2.0910   0.0000   0.3566
  32.500   1.1409   0.42847   0.42498  -0.1801  0.0123  1.0000  -2.2321   0.0000   0.3561
  36.000   1.2115   0.48203   0.47871  -0.2193  0.0092  1.0000  -1.8755   0.0000   0.3673
  36.500   1.2196   0.48933   0.48605  -0.2245  0.0087  1.0000  -1.8823   0.0000   0.3683
  37.000   1.2272   0.49652   0.49328  -0.2297  0.0083  1.0000  -1.8962   0.0000   0.3693
  37.500   1.2344   0.50356   0.50036  -0.2350  0.0079  1.0000  -1.9175   0.0000   0.3703
  38.000   1.2410   0.51049   0.50731  -0.2401  0.0076  1.0000  -1.9473   0.0000   0.3712
  38.500   1.2469   0.51736   0.51422  -0.2452  0.0074  1.0000  -1.9876   0.0000   0.3720
  39.000   1.2520   0.52455   0.52145  -0.2500  0.0072  1.0000  -2.0531   0.0000   0.3726
  39.500   1.2559   0.53444   0.53140  -0.2539  0.0070  1.0000  -2.1564   0.0000   0.3726


