xflr5 v6.50

 Calculated polar for: NACA 0012

 1 1 Reynolds number fixed          Mach number fixed         

 xtrf =   1.000 (top)        1.000 (bottom)
 Mach =   0.000     Re =     0.100 e 6     Ncrit =   9.000

  alpha     CL        CD       CDp       Cm    Top Xtr Bot Xtr   Cpmin    Chinge    XCp    
 ------- -------- --------- --------- -------- ------- ------- -------- --------- ---------
 -35.000  -1.1906   0.45832   0.45360   0.2032  1.0000  0.0190  -2.1498   0.0000   0.3607
 -34.500  -1.1823   0.44518   0.44040   0.2008  1.0000  0.0196  -2.0424   0.0000   0.3615
 -34.000  -1.1731   0.43819   0.43336   0.1963  1.0000  0.0204  -1.9888   0.0000   0.3610
 -33.500  -1.1632   0.43177   0.42688   0.1915  1.0000  0.0217  -1.9506   0.0000   0.3600
 -33.000  -1.1527   0.42525   0.42032   0.1864  1.0000  0.0235  -1.9272   0.0000   0.3589
 -32.500  -1.1415   0.41857   0.41359   0.1811  1.0000  0.0249  -1.9157   0.0000   0.3575
 -32.000  -1.1297   0.41222   0.40721   0.1756  1.0000  0.0259  -1.9153   0.0000   0.3558
 -31.500  -1.1176   0.40751   0.40246   0.1692  1.0000  0.0265  -1.9338   0.0000   0.3534
 -31.000  -1.1062   0.40472   0.39964   0.1625  1.0000  0.0267  -1.9566   0.0000   0.3504
 -30.500  -1.0956   0.40291   0.39780   0.1557  1.0000  0.0269  -1.9771   0.0000   0.3472
 -30.000  -1.0843   0.39555   0.39045   0.1504  1.0000  0.0270  -1.9620   0.0000   0.3452
 -29.500  -1.0703   0.37811   0.37293   0.1495  1.0000  0.0277  -1.8024   0.0000   0.3474
 -29.000  -1.0575   0.37056   0.36534   0.1457  1.0000  0.0287  -1.7306   0.0000   0.3469
 -28.500  -1.0443   0.36388   0.35863   0.1413  1.0000  0.0298  -1.7043   0.0000   0.3458
 -28.000  -1.0308   0.35724   0.35193   0.1367  1.0000  0.0313  -1.6966   0.0000   0.3444
 -27.500  -1.0170   0.35052   0.34519   0.1318  1.0000  0.0331  -1.7064   0.0000   0.3427
 -27.000  -1.0027   0.34444   0.33908   0.1261  1.0000  0.0353  -1.7634   0.0000   0.3401
 -26.500  -0.9914   0.34449   0.33914   0.1177  1.0000  0.0362  -1.9214   0.0000   0.3343
 -26.000  -0.9786   0.33596   0.33063   0.1128  1.0000  0.0367  -1.9773   0.0000   0.3319
 -25.500  -0.9608   0.32275   0.31735   0.1123  1.0000  0.0383  -1.8233   0.0000   0.3345
 -25.000  -0.9454   0.31635   0.31092   0.1086  1.0000  0.0415  -1.7631   0.0000   0.3337
 -24.500  -0.9304   0.31001   0.30453   0.1038  1.0000  0.0445  -1.7604   0.0000   0.3314
 -24.000  -0.9171   0.30650   0.30101   0.0968  1.0000  0.0465  -1.8274   0.0000   0.3266
 -23.500  -0.9086   0.30770   0.30223   0.0886  1.0000  0.0470  -1.9251   0.0000   0.3198
 -23.000  -0.8907   0.29367   0.28819   0.0864  1.0000  0.0477  -1.8532   0.0000   0.3199
 -22.500  -0.8710   0.28328   0.27775   0.0852  1.0000  0.0493  -1.7062   0.0000   0.3217
 -22.000  -0.8542   0.27679   0.27124   0.0819  1.0000  0.0516  -1.6275   0.0000   0.3207
 -21.500  -0.8381   0.27057   0.26497   0.0777  1.0000  0.0546  -1.5794   0.0000   0.3185
 -21.000  -0.8250   0.26622   0.26062   0.0713  1.0000  0.0582  -1.6192   0.0000   0.3130
 -20.500  -0.8252   0.26884   0.26330   0.0616  1.0000  0.0591  -1.8202   0.0000   0.3024
 -20.000  -0.7951   0.25103   0.24545   0.0634  1.0000  0.0612  -1.6733   0.0000   0.3080
 -19.500  -0.7766   0.24410   0.23850   0.0612  1.0000  0.0649  -1.6234   0.0000   0.3078
 -19.000  -0.7640   0.23813   0.23252   0.0561  1.0000  0.0707  -1.6763   0.0000   0.3033
 -18.500  -0.7597   0.23200   0.22644   0.0496  1.0000  0.0736  -1.7991   0.0000   0.2958
 -18.000  -0.7341   0.22333   0.21772   0.0498  1.0000  0.0780  -1.6570   0.0000   0.2991
 -17.500  -0.7206   0.21672   0.21107   0.0460  1.0000  0.0832  -1.6521   0.0000   0.2958
 -17.000  -0.7373   0.21601   0.21048   0.0358  1.0000  0.0869  -1.8846   0.0000   0.2815
 -16.500  -0.7045   0.20202   0.19641   0.0369  1.0000  0.0892  -1.7308   0.0000   0.2856
 -16.000  -0.6833   0.19474   0.18911   0.0360  1.0000  0.0938  -1.6285   0.0000   0.2865
 -15.500  -0.6863   0.18950   0.18391   0.0298  1.0000  0.1015  -1.7181   0.0000   0.2780
 -15.000  -0.6887   0.18072   0.17518   0.0249  1.0000  0.1040  -1.8009   0.0000   0.2712
 -14.500  -0.6544   0.17259   0.16699   0.0266  1.0000  0.1101  -1.6125   0.0000   0.2763
 -14.000  -0.6789   0.16702   0.16151   0.0178  1.0000  0.1191  -1.8077   0.0000   0.2626
 -13.500  -0.6390   0.15800   0.15243   0.0213  1.0000  0.1275  -1.6490   0.0000   0.2701
 -13.000  -0.6782   0.15172   0.14627   0.0109  1.0000  0.1372  -1.9009   0.0000   0.2537
 -12.500  -0.6432   0.14140   0.13586   0.0138  1.0000  0.1413  -1.7798   0.0000   0.2593
 -12.000  -0.7443   0.10132   0.09590  -0.0127  1.0000  0.0864  -2.9120   0.0000   0.2200
 -11.000  -0.9573   0.05996   0.05356  -0.0296  1.0000  0.0739  -4.0763   0.0000   0.2077
 -10.500  -0.9712   0.05219   0.04525  -0.0257  1.0000  0.0747  -4.1126   0.0000   0.2127
 -10.000  -0.9649   0.04563   0.03815  -0.0219  1.0000  0.0765  -4.0624   0.0000   0.2169
  -9.500  -0.9443   0.04041   0.03236  -0.0185  1.0000  0.0802  -3.9433   0.0000   0.2204
  -9.000  -0.9191   0.03576   0.02694  -0.0148  1.0000  0.0853  -3.8154   0.0000   0.2245
  -8.500  -0.8837   0.03206   0.02307  -0.0124  1.0000  0.0948  -3.5810   0.0000   0.2269
  -8.000  -0.8448   0.02863   0.01925  -0.0099  1.0000  0.1057  -3.3589   0.0000   0.2298
  -7.500  -0.8029   0.02617   0.01655  -0.0074  1.0000  0.1195  -3.1056   0.0000   0.2327
  -7.000  -0.7624   0.02356   0.01409  -0.0051  1.0000  0.1418  -2.8448   0.0000   0.2356
  -6.500  -0.7230   0.02149   0.01215  -0.0023  1.0000  0.1713  -2.6387   0.0000   0.2396
  -6.000  -0.6859   0.01969   0.01056   0.0009  1.0000  0.2178  -2.4290   0.0000   0.2446
  -5.500  -0.6504   0.01801   0.00934   0.0043  1.0000  0.2831  -2.2162   0.0000   0.2504
  -5.000  -0.6141   0.01677   0.00845   0.0078  1.0000  0.3631  -1.9955   0.0000   0.2569
  -4.500  -0.5762   0.01587   0.00793   0.0113  1.0000  0.4437  -1.7817   0.0000   0.2641
  -4.000  -0.5366   0.01519   0.00761   0.0147  1.0000  0.5207  -1.5939   0.0000   0.2723
  -3.500  -0.4959   0.01473   0.00738   0.0180  1.0000  0.5967  -1.4091   0.0000   0.2816
  -3.000  -0.4545   0.01442   0.00735   0.0215  1.0000  0.6676  -1.2330   0.0000   0.2931
  -2.500  -0.4138   0.01431   0.00745   0.0253  1.0000  0.7392  -1.0836   0.0000   0.3071
  -2.000  -0.3733   0.01447   0.00784   0.0295  1.0000  0.8058  -0.9451   0.0000   0.3255
  -1.500  -0.3313   0.01491   0.00837   0.0334  1.0000  0.8725  -0.8216   0.0000   0.3478
  -1.000  -0.2583   0.01573   0.00914   0.0310  1.0000  0.9305  -0.6852   0.0000   0.3671
  -0.500  -0.1351   0.01658   0.00988   0.0174  1.0000  0.9694  -0.5327   0.0000   0.3764
   0.000   0.0000   0.01697   0.01024  -0.0000  1.0000  1.0000  -0.4093   0.0000   0.3869
   0.500   0.1350   0.01658   0.00988  -0.0174  0.9694  1.0000  -0.5326   0.0000   0.3764
   1.000   0.2583   0.01573   0.00914  -0.0310  0.9305  1.0000  -0.6851   0.0000   0.3671
   1.500   0.3313   0.01491   0.00837  -0.0334  0.8725  1.0000  -0.8215   0.0000   0.3478
   2.000   0.3732   0.01447   0.00783  -0.0295  0.8058  1.0000  -0.9450   0.0000   0.3255
   2.500   0.4137   0.01431   0.00745  -0.0252  0.7393  1.0000  -1.0834   0.0000   0.3071
   3.000   0.4544   0.01441   0.00735  -0.0215  0.6677  1.0000  -1.2328   0.0000   0.2930
   3.500   0.4958   0.01473   0.00738  -0.0179  0.5967  1.0000  -1.4089   0.0000   0.2815
   4.000   0.5365   0.01519   0.00760  -0.0146  0.5208  1.0000  -1.5937   0.0000   0.2723
   4.500   0.5761   0.01587   0.00792  -0.0113  0.4437  1.0000  -1.7815   0.0000   0.2641
   5.000   0.6140   0.01677   0.00845  -0.0078  0.3632  1.0000  -1.9952   0.0000   0.2569
   5.500   0.6503   0.01800   0.00934  -0.0043  0.2832  1.0000  -2.2160   0.0000   0.2503
   6.000   0.6859   0.01969   0.01056  -0.0009  0.2179  1.0000  -2.4289   0.0000   0.2445
   6.500   0.7229   0.02149   0.01215   0.0023  0.1713  1.0000  -2.6385   0.0000   0.2396
   7.000   0.7624   0.02356   0.01408   0.0051  0.1418  1.0000  -2.8447   0.0000   0.2356
   7.500   0.8029   0.02616   0.01655   0.0074  0.1195  1.0000  -3.1056   0.0000   0.2327
   8.000   0.8449   0.02863   0.01925   0.0099  0.1057  1.0000  -3.3590   0.0000   0.2298
   8.500   0.8837   0.03206   0.02307   0.0124  0.0948  1.0000  -3.5811   0.0000   0.2270
   9.000   0.9192   0.03576   0.02694   0.0147  0.0853  1.0000  -3.8156   0.0000   0.2245
   9.500   0.9444   0.04041   0.03237   0.0185  0.0802  1.0000  -3.9437   0.0000   0.2205
  10.000   0.9651   0.04564   0.03816   0.0219  0.0765  1.0000  -4.0630   0.0000   0.2169
  10.500   0.9715   0.05221   0.04527   0.0256  0.0747  1.0000  -4.1132   0.0000   0.2127
  11.000   0.9579   0.05999   0.05360   0.0294  0.0739  1.0000  -4.0782   0.0000   0.2078
  11.500   0.6794   0.11429   0.10889  -0.0003  0.1224  1.0000  -2.1981   0.0000   0.2389
  12.000   0.6300   0.13429   0.12873  -0.0135  0.1483  1.0000  -1.7468   0.0000   0.2597
  12.500   0.6458   0.14149   0.13595  -0.0141  0.1412  1.0000  -1.7856   0.0000   0.2597
  13.000   0.6788   0.15184   0.14639  -0.0115  0.1372  1.0000  -1.8966   0.0000   0.2545
  13.500   0.6415   0.15813   0.15257  -0.0217  0.1272  1.0000  -1.6535   0.0000   0.2705
  14.000   0.6796   0.16716   0.16164  -0.0184  0.1190  1.0000  -1.8019   0.0000   0.2635
  14.500   0.6567   0.17281   0.16722  -0.0270  0.1099  1.0000  -1.6171   0.0000   0.2767
  15.000   0.6923   0.18112   0.17559  -0.0250  0.1039  1.0000  -1.8147   0.0000   0.2712
  15.500   0.6868   0.18961   0.18401  -0.0305  0.1014  1.0000  -1.7108   0.0000   0.2790
  16.000   0.6855   0.19514   0.18950  -0.0364  0.0937  1.0000  -1.6324   0.0000   0.2870
  16.500   0.7071   0.20252   0.19691  -0.0372  0.0891  1.0000  -1.7379   0.0000   0.2858
  17.000   0.7386   0.21638   0.21086  -0.0364  0.0869  1.0000  -1.8826   0.0000   0.2821
  17.500   0.7224   0.21734   0.21169  -0.0465  0.0831  1.0000  -1.6529   0.0000   0.2964
  18.000   0.7360   0.22407   0.21846  -0.0502  0.0779  1.0000  -1.6596   0.0000   0.2995
  18.500   0.7631   0.23330   0.22776  -0.0495  0.0734  1.0000  -1.8160   0.0000   0.2955
  19.000   0.7654   0.23897   0.23336  -0.0568  0.0705  1.0000  -1.6715   0.0000   0.3040
  19.500   0.7783   0.24522   0.23962  -0.0616  0.0648  1.0000  -1.6244   0.0000   0.3082
  20.000   0.7968   0.25234   0.24676  -0.0638  0.0611  1.0000  -1.6764   0.0000   0.3083
  20.500   0.8260   0.26986   0.26433  -0.0621  0.0591  1.0000  -1.8162   0.0000   0.3029
  21.000   0.8262   0.26771   0.26212  -0.0719  0.0581  1.0000  -1.6144   0.0000   0.3136
  21.500   0.8395   0.27249   0.26693  -0.0782  0.0545  1.0000  -1.5809   0.0000   0.3189
  22.000   0.8555   0.27893   0.27338  -0.0823  0.0515  1.0000  -1.6289   0.0000   0.3210
  22.500   0.8723   0.28563   0.28011  -0.0856  0.0493  1.0000  -1.7083   0.0000   0.3221
  23.000   0.8919   0.29642   0.29095  -0.0866  0.0477  1.0000  -1.8576   0.0000   0.3201
  23.500   0.9092   0.31011   0.30465  -0.0891  0.0470  1.0000  -1.9217   0.0000   0.3202
  24.000   0.9179   0.30941   0.30393  -0.0973  0.0465  1.0000  -1.8235   0.0000   0.3270
  24.500   0.9314   0.31346   0.30798  -0.1042  0.0445  1.0000  -1.7584   0.0000   0.3319
  25.000   0.9463   0.32013   0.31470  -0.1090  0.0414  1.0000  -1.7620   0.0000   0.3341
  25.500   0.9616   0.32685   0.32146  -0.1126  0.0383  1.0000  -1.8241   0.0000   0.3348
  26.000   0.9792   0.34090   0.33558  -0.1129  0.0366  1.0000  -1.9814   0.0000   0.3320
  26.500   0.9914   0.34885   0.34351  -0.1182  0.0362  1.0000  -1.9131   0.0000   0.3348
  27.000   1.0030   0.34961   0.34426  -0.1266  0.0352  1.0000  -1.7565   0.0000   0.3405
  27.500   1.0172   0.35623   0.35091  -0.1322  0.0331  1.0000  -1.7020   0.0000   0.3431
  28.000   1.0309   0.36339   0.35810  -0.1370  0.0313  1.0000  -1.6924   0.0000   0.3448
  28.500   1.0442   0.37050   0.36526  -0.1416  0.0298  1.0000  -1.7002   0.0000   0.3462
  29.000   1.0572   0.37764   0.37244  -0.1460  0.0286  1.0000  -1.7266   0.0000   0.3473
  29.500   1.0697   0.38569   0.38053  -0.1497  0.0277  1.0000  -1.8008   0.0000   0.3477
  30.000   1.0832   0.40405   0.39896  -0.1503  0.0270  1.0000  -1.9617   0.0000   0.3454
  30.500   1.0942   0.41108   0.40598  -0.1558  0.0269  1.0000  -1.9701   0.0000   0.3476
  31.000   1.1048   0.41367   0.40861  -0.1626  0.0267  1.0000  -1.9494   0.0000   0.3508
  31.500   1.1162   0.41727   0.41223  -0.1694  0.0265  1.0000  -1.9262   0.0000   0.3538
  32.000   1.1282   0.42278   0.41778  -0.1757  0.0259  1.0000  -1.9077   0.0000   0.3562
  32.500   1.1399   0.42986   0.42490  -0.1812  0.0248  1.0000  -1.9080   0.0000   0.3579
  33.000   1.1508   0.43724   0.43233  -0.1864  0.0234  1.0000  -1.9189   0.0000   0.3593
  33.500   1.1611   0.44446   0.43959  -0.1915  0.0217  1.0000  -1.9425   0.0000   0.3604
  34.000   1.1707   0.45161   0.44680  -0.1963  0.0204  1.0000  -1.9797   0.0000   0.3614
  34.500   1.1796   0.45938   0.45462  -0.2006  0.0196  1.0000  -2.0337   0.0000   0.3619
  35.000   1.1873   0.47382   0.46912  -0.2028  0.0190  1.0000  -2.1431   0.0000   0.3609


