xflr5 v6.50

 Calculated polar for: NACA 0012

 1 1 Reynolds number fixed          Mach number fixed         

 xtrf =   1.000 (top)        1.000 (bottom)
 Mach =   0.000     Re =     0.275 e 6     Ncrit =   9.000

  alpha     CL        CD       CDp       Cm    Top Xtr Bot Xtr   Cpmin    Chinge    XCp    
 ------- -------- --------- --------- -------- ------- ------- -------- --------- ---------
 -43.000  -0.7354   0.48122   0.47940   0.1558  1.0000  0.0032  -0.9362   0.0000   0.3913
 -42.500  -0.7354   0.47505   0.47319   0.1527  1.0000  0.0034  -0.9032   0.0000   0.3899
 -42.000  -0.7353   0.46934   0.46745   0.1498  1.0000  0.0037  -0.8862   0.0000   0.3883
 -41.500  -0.7349   0.46327   0.46135   0.1468  1.0000  0.0041  -0.8814   0.0000   0.3867
 -41.000  -0.7339   0.45667   0.45472   0.1438  1.0000  0.0048  -0.8874   0.0000   0.3851
 -40.500  -0.7324   0.44956   0.44759   0.1407  1.0000  0.0057  -0.9017   0.0000   0.3835
 -40.000  -0.7304   0.44236   0.44034   0.1378  1.0000  0.0063  -0.9185   0.0000   0.3819
 -39.500  -0.7283   0.43537   0.43333   0.1347  1.0000  0.0065  -0.9252   0.0000   0.3802
 -39.000  -0.7262   0.42871   0.42663   0.1316  1.0000  0.0067  -0.9277   0.0000   0.3783
 -38.500  -0.7239   0.42184   0.41974   0.1285  1.0000  0.0067  -0.9214   0.0000   0.3763
 -38.000  -0.7211   0.41463   0.41250   0.1253  1.0000  0.0067  -0.9087   0.0000   0.3744
 -37.500  -0.7180   0.40728   0.40511   0.1220  1.0000  0.0068  -0.8944   0.0000   0.3723
 -37.000  -0.7146   0.39976   0.39756   0.1187  1.0000  0.0068  -0.8969   0.0000   0.3702
 -36.500  -0.7109   0.39208   0.38986   0.1153  1.0000  0.0068  -0.9260   0.0000   0.3680
 -34.500  -1.1858   0.44178   0.43888   0.2033  1.0000  0.0072  -2.1715   0.0000   0.3627
 -34.000  -1.1771   0.43576   0.43283   0.1988  1.0000  0.0075  -2.0844   0.0000   0.3620
 -33.500  -1.1676   0.42986   0.42690   0.1938  1.0000  0.0080  -2.0270   0.0000   0.3611
 -33.000  -1.1572   0.42362   0.42064   0.1888  1.0000  0.0089  -1.9975   0.0000   0.3600
 -32.500  -1.1462   0.41691   0.41390   0.1837  1.0000  0.0102  -1.9953   0.0000   0.3588
 -32.000  -1.1334   0.40974   0.40671   0.1782  1.0000  0.0116  -2.0402   0.0000   0.3572
 -31.500  -1.1208   0.40343   0.40037   0.1722  1.0000  0.0119  -2.0702   0.0000   0.3551
 -31.000  -1.1088   0.39780   0.39472   0.1661  1.0000  0.0120  -2.0841   0.0000   0.3528
 -30.500  -1.0971   0.39203   0.38892   0.1603  1.0000  0.0121  -2.0809   0.0000   0.3505
 -30.000  -1.0852   0.38578   0.38265   0.1547  1.0000  0.0121  -2.0639   0.0000   0.3485
 -29.500  -1.0733   0.37941   0.37627   0.1492  1.0000  0.0121  -2.0454   0.0000   0.3463
 -28.500  -1.0483   0.36026   0.35709   0.1416  1.0000  0.0125  -1.9862   0.0000   0.3449
 -28.000  -1.0352   0.35354   0.35035   0.1379  1.0000  0.0129  -1.8945   0.0000   0.3445
 -27.500  -1.0218   0.34743   0.34420   0.1336  1.0000  0.0133  -1.8317   0.0000   0.3435
 -27.000  -1.0080   0.34123   0.33798   0.1292  1.0000  0.0139  -1.7915   0.0000   0.3421
 -26.500  -0.9938   0.33482   0.33155   0.1246  1.0000  0.0148  -1.7709   0.0000   0.3406
 -26.000  -0.9794   0.32815   0.32487   0.1199  1.0000  0.0160  -1.7722   0.0000   0.3388
 -25.500  -0.9638   0.32095   0.31766   0.1142  1.0000  0.0182  -1.8774   0.0000   0.3358
 -25.000  -0.9510   0.31570   0.31241   0.1065  1.0000  0.0187  -2.1007   0.0000   0.3303
 -24.500  -0.9381   0.30965   0.30636   0.1006  1.0000  0.0188  -2.2068   0.0000   0.3265
 -24.000  -0.9221   0.29807   0.29475   0.0994  1.0000  0.0196  -2.0880   0.0000   0.3280
 -23.500  -0.9061   0.29236   0.28902   0.0961  1.0000  0.0204  -1.9589   0.0000   0.3275
 -23.000  -0.8901   0.28680   0.28344   0.0923  1.0000  0.0216  -1.8585   0.0000   0.3262
 -22.500  -0.8742   0.28076   0.27740   0.0880  1.0000  0.0236  -1.7951   0.0000   0.3242
 -22.000  -0.8585   0.27410   0.27072   0.0830  1.0000  0.0255  -1.7877   0.0000   0.3211
 -21.500  -0.8454   0.26846   0.26509   0.0757  1.0000  0.0266  -1.8804   0.0000   0.3148
 -21.000  -0.8328   0.26261   0.25924   0.0697  1.0000  0.0268  -1.9193   0.0000   0.3097
 -20.500  -0.8187   0.25552   0.25214   0.0649  1.0000  0.0269  -1.9465   0.0000   0.3060
 -20.000  -0.8050   0.24454   0.24116   0.0623  1.0000  0.0276  -1.9781   0.0000   0.3049
 -19.500  -0.7859   0.23846   0.23506   0.0607  1.0000  0.0285  -1.8490   0.0000   0.3057
 -19.000  -0.7695   0.23241   0.22901   0.0578  1.0000  0.0300  -1.7905   0.0000   0.3044
 -18.500  -0.7549   0.22552   0.22212   0.0540  1.0000  0.0328  -1.8004   0.0000   0.3016
 -18.000  -0.7536   0.21668   0.21330   0.0445  1.0000  0.0362  -2.1387   0.0000   0.2895
 -17.500  -0.7458   0.20562   0.20225   0.0411  1.0000  0.0372  -2.2242   0.0000   0.2861
 -17.000  -0.7237   0.20046   0.19706   0.0408  1.0000  0.0386  -2.0231   0.0000   0.2883
 -16.500  -0.7079   0.19452   0.19109   0.0384  1.0000  0.0409  -1.9220   0.0000   0.2870
 -16.000  -0.7096   0.18535   0.18194   0.0302  1.0000  0.0467  -2.1121   0.0000   0.2756
 -15.000  -0.7077   0.16347   0.16010   0.0212  1.0000  0.0482  -2.3091   0.0000   0.2638
 -14.500  -1.0039   0.07661   0.07262  -0.0242  1.0000  0.0287  -5.9191   0.0000   0.2075
 -14.000  -1.0586   0.06130   0.05680  -0.0336  1.0000  0.0286  -6.2343   0.0000   0.2011
 -13.500  -1.0875   0.05203   0.04716  -0.0367  1.0000  0.0289  -6.2884   0.0000   0.2000
 -13.000  -1.1018   0.04580   0.04061  -0.0364  1.0000  0.0297  -6.2064   0.0000   0.2017
 -12.500  -1.1074   0.04121   0.03572  -0.0338  1.0000  0.0307  -6.0540   0.0000   0.2052
 -12.000  -1.1066   0.03750   0.03168  -0.0294  1.0000  0.0320  -5.8620   0.0000   0.2099
 -11.500  -1.0941   0.03423   0.02803  -0.0251  1.0000  0.0336  -5.6481   0.0000   0.2142
 -11.000  -1.0702   0.03129   0.02472  -0.0217  1.0000  0.0352  -5.4209   0.0000   0.2175
 -10.500  -1.0403   0.02859   0.02167  -0.0188  1.0000  0.0367  -5.1667   0.0000   0.2204
 -10.000  -1.0104   0.02504   0.01797  -0.0160  1.0000  0.0402  -4.9171   0.0000   0.2232
  -9.500  -0.9723   0.02362   0.01642  -0.0136  1.0000  0.0445  -4.5845   0.0000   0.2256
  -9.000  -0.9349   0.02156   0.01413  -0.0110  1.0000  0.0489  -4.2927   0.0000   0.2284
  -8.500  -0.8975   0.01987   0.01242  -0.0083  1.0000  0.0544  -3.9820   0.0000   0.2315
  -8.000  -0.8587   0.01841   0.01084  -0.0055  1.0000  0.0607  -3.6790   0.0000   0.2349
  -7.500  -0.8210   0.01711   0.00954  -0.0025  1.0000  0.0703  -3.3725   0.0000   0.2388
  -7.000  -0.7831   0.01589   0.00833   0.0006  1.0000  0.0837  -3.0679   0.0000   0.2430
  -6.500  -0.7441   0.01481   0.00727   0.0035  1.0000  0.1018  -2.8146   0.0000   0.2475
  -6.000  -0.7058   0.01370   0.00635   0.0065  1.0000  0.1310  -2.5722   0.0000   0.2524
  -5.500  -0.6656   0.01280   0.00566   0.0091  1.0000  0.1756  -2.3255   0.0000   0.2573
  -5.000  -0.6247   0.01196   0.00508   0.0115  1.0000  0.2331  -2.0790   0.0000   0.2625
  -4.500  -0.5823   0.01129   0.00470   0.0136  1.0000  0.2993  -1.8380   0.0000   0.2678
  -4.000  -0.5379   0.01079   0.00447   0.0153  1.0000  0.3665  -1.6330   0.0000   0.2733
  -3.500  -0.4925   0.01038   0.00436   0.0168  1.0000  0.4340  -1.4356   0.0000   0.2793
  -3.000  -0.4116   0.00994   0.00420   0.0111  0.9901  0.5146  -1.1888   0.0000   0.2724
  -2.500  -0.3297   0.00955   0.00410   0.0056  0.9794  0.5916  -0.9765   0.0000   0.2625
  -2.000  -0.2521   0.00913   0.00397   0.0013  0.9659  0.6605  -0.8049   0.0000   0.2507
  -1.500  -0.1782   0.00874   0.00383  -0.0018  0.9502  0.7233  -0.6677   0.0000   0.2353
  -1.000  -0.1120   0.00841   0.00370  -0.0029  0.9296  0.7783  -0.5606   0.0000   0.2194
  -0.500  -0.0531   0.00818   0.00359  -0.0021  0.9031  0.8268  -0.4792   0.0000   0.2050
   0.000  -0.0000   0.00811   0.00359   0.0000  0.8677  0.8677  -0.4141   0.0000   0.3574
   0.500   0.0531   0.00818   0.00359   0.0021  0.8268  0.9031  -0.4792   0.0000   0.2050
   1.500   0.1782   0.00874   0.00383   0.0018  0.7233  0.9502  -0.6677   0.0000   0.2353
   2.000   0.2521   0.00913   0.00397  -0.0013  0.6605  0.9659  -0.8049   0.0000   0.2507
   2.500   0.3296   0.00954   0.00410  -0.0056  0.5916  0.9794  -0.9764   0.0000   0.2624
   3.000   0.4115   0.00994   0.00420  -0.0111  0.5146  0.9901  -1.1888   0.0000   0.2724
   3.500   0.4924   0.01038   0.00435  -0.0168  0.4340  1.0000  -1.4353   0.0000   0.2792
   4.000   0.5378   0.01079   0.00446  -0.0153  0.3666  1.0000  -1.6327   0.0000   0.2733
   4.500   0.5821   0.01128   0.00470  -0.0136  0.2994  1.0000  -1.8376   0.0000   0.2678
   5.000   0.6246   0.01196   0.00508  -0.0115  0.2332  1.0000  -2.0786   0.0000   0.2624
   5.500   0.6655   0.01280   0.00566  -0.0091  0.1756  1.0000  -2.3252   0.0000   0.2573
   6.000   0.7057   0.01370   0.00635  -0.0065  0.1310  1.0000  -2.5719   0.0000   0.2524
   6.500   0.7440   0.01481   0.00727  -0.0035  0.1018  1.0000  -2.8143   0.0000   0.2475
   7.000   0.7830   0.01589   0.00832  -0.0005  0.0837  1.0000  -3.0677   0.0000   0.2430
   7.500   0.8210   0.01710   0.00954   0.0025  0.0703  1.0000  -3.3723   0.0000   0.2388
   8.000   0.8587   0.01841   0.01084   0.0055  0.0607  1.0000  -3.6790   0.0000   0.2349
   8.500   0.8975   0.01986   0.01242   0.0083  0.0544  1.0000  -3.9821   0.0000   0.2315
   9.000   0.9350   0.02156   0.01413   0.0110  0.0489  1.0000  -4.2930   0.0000   0.2284
   9.500   0.9724   0.02362   0.01642   0.0136  0.0445  1.0000  -4.5851   0.0000   0.2256
  10.000   1.0106   0.02504   0.01797   0.0159  0.0402  1.0000  -4.9179   0.0000   0.2233
  10.500   1.0405   0.02862   0.02169   0.0187  0.0367  1.0000  -5.1668   0.0000   0.2204
  11.000   1.0706   0.03129   0.02473   0.0217  0.0352  1.0000  -5.4223   0.0000   0.2176
  11.500   1.0946   0.03424   0.02804   0.0250  0.0335  1.0000  -5.6498   0.0000   0.2143
  12.000   1.1074   0.03751   0.03169   0.0292  0.0320  1.0000  -5.8654   0.0000   0.2100
  12.500   1.1085   0.04122   0.03574   0.0336  0.0307  1.0000  -6.0586   0.0000   0.2054
  13.000   1.1031   0.04580   0.04062   0.0362  0.0297  1.0000  -6.2127   0.0000   0.2020
  13.500   1.0891   0.05204   0.04717   0.0365  0.0289  1.0000  -6.2958   0.0000   0.2003
  14.000   1.0603   0.06134   0.05684   0.0332  0.0285  1.0000  -6.2413   0.0000   0.2014
  14.500   1.0060   0.07666   0.07267   0.0238  0.0287  1.0000  -5.9274   0.0000   0.2080
  15.000   0.1746   0.03736   0.03478   0.0269  0.0639  1.0000  -0.6544   0.0000   0.1107
  15.500   0.2012   0.04047   0.03788   0.0273  0.0604  1.0000  -0.7850   0.0000   0.1253
  16.000   0.2152   0.04716   0.04454   0.0247  0.0588  1.0000  -0.7313   0.0000   0.1447
  16.500   0.2132   0.05128   0.04864   0.0199  0.0522  1.0000  -0.5951   0.0000   0.1673
  17.000   0.2321   0.05572   0.05307   0.0183  0.0492  1.0000  -0.6784   0.0000   0.1798
  17.500   0.7483   0.20609   0.20273  -0.0415  0.0372  1.0000  -2.2340   0.0000   0.2864
  18.000   0.7555   0.21733   0.21395  -0.0450  0.0362  1.0000  -2.1375   0.0000   0.2900
  18.500   0.7569   0.22633   0.22292  -0.0545  0.0327  1.0000  -1.8005   0.0000   0.3021
  19.000   0.7714   0.23330   0.22990  -0.0582  0.0299  1.0000  -1.7930   0.0000   0.3048
  19.500   0.7878   0.23945   0.23605  -0.0611  0.0285  1.0000  -1.8530   0.0000   0.3060
  20.000   0.8069   0.24565   0.24228  -0.0626  0.0276  1.0000  -1.9841   0.0000   0.3051
  20.500   0.8202   0.25681   0.25342  -0.0653  0.0269  1.0000  -1.9454   0.0000   0.3065
  21.000   0.8342   0.26412   0.26076  -0.0701  0.0268  1.0000  -1.9197   0.0000   0.3101
  21.500   0.8466   0.27021   0.26684  -0.0762  0.0266  1.0000  -1.8790   0.0000   0.3153
  22.000   0.8599   0.27618   0.27281  -0.0835  0.0255  1.0000  -1.7864   0.0000   0.3216
  22.500   0.8757   0.28307   0.27970  -0.0885  0.0235  1.0000  -1.7963   0.0000   0.3246
  23.000   0.8915   0.28931   0.28596  -0.0927  0.0216  1.0000  -1.8608   0.0000   0.3266
  23.500   0.9074   0.29510   0.29176  -0.0966  0.0203  1.0000  -1.9613   0.0000   0.3279
  24.000   0.9234   0.30104   0.29773  -0.0998  0.0196  1.0000  -2.0918   0.0000   0.3284
  24.500   0.9389   0.31280   0.30952  -0.1011  0.0188  1.0000  -2.2035   0.0000   0.3269
  25.000   0.9518   0.31918   0.31590  -0.1070  0.0187  1.0000  -2.0926   0.0000   0.3308
  25.500   0.9648   0.32495   0.32167  -0.1148  0.0181  1.0000  -1.8659   0.0000   0.3364
  26.000   0.9802   0.33255   0.32928  -0.1204  0.0160  1.0000  -1.7694   0.0000   0.3392
  26.500   0.9946   0.33958   0.33632  -0.1250  0.0148  1.0000  -1.7686   0.0000   0.3410
  27.000   1.0086   0.34636   0.34312  -0.1296  0.0139  1.0000  -1.7894   0.0000   0.3425
  27.500   1.0223   0.35295   0.34973  -0.1340  0.0133  1.0000  -1.8298   0.0000   0.3438
  28.000   1.0355   0.35947   0.35628  -0.1383  0.0129  1.0000  -1.8928   0.0000   0.3449
  28.500   1.0483   0.36661   0.36345  -0.1419  0.0125  1.0000  -1.9848   0.0000   0.3452
  34.000   1.1751   0.44887   0.44595  -0.1988  0.0075  1.0000  -2.0774   0.0000   0.3625
  34.500   1.1834   0.45562   0.45273  -0.2033  0.0072  1.0000  -2.1651   0.0000   0.3630
  36.500   1.2163   0.49003   0.48723  -0.2231  0.0068  1.0000  -2.0724   0.0000   0.3672
  37.000   1.2244   0.49719   0.49441  -0.2288  0.0068  1.0000  -2.0356   0.0000   0.3686
  37.500   1.2321   0.50437   0.50162  -0.2345  0.0067  1.0000  -2.0043   0.0000   0.3700
  38.000   1.2396   0.51157   0.50884  -0.2401  0.0067  1.0000  -1.9772   0.0000   0.3712
  38.500   1.2467   0.51879   0.51610  -0.2457  0.0067  1.0000  -1.9609   0.0000   0.3724
  39.000   1.2534   0.52605   0.52339  -0.2513  0.0066  1.0000  -1.9916   0.0000   0.3736
  39.500   1.2598   0.53336   0.53073  -0.2569  0.0066  1.0000  -2.0220   0.0000   0.3746
  40.000   1.2659   0.54070   0.53810  -0.2624  0.0064  1.0000  -2.0498   0.0000   0.3756
  40.500   1.2719   0.54814   0.54557  -0.2679  0.0062  1.0000  -2.0727   0.0000   0.3766
  41.000   1.2770   0.55551   0.55298  -0.2732  0.0057  1.0000  -2.1002   0.0000   0.3774
  41.500   1.2814   0.56273   0.56023  -0.2786  0.0052  1.0000  -2.1293   0.0000   0.3783
  42.000   1.2854   0.56980   0.56734  -0.2840  0.0047  1.0000  -2.1569   0.0000   0.3791
  42.500   1.2887   0.57670   0.57428  -0.2895  0.0042  1.0000  -2.1844   0.0000   0.3799
  43.000   1.2915   0.58327   0.58088  -0.2949  0.0038  1.0000  -2.2187   0.0000   0.3806
  43.500   1.2936   0.58943   0.58707  -0.3003  0.0035  1.0000  -2.2685   0.0000   0.3813
  44.000   1.2945   0.59541   0.59308  -0.3054  0.0033  1.0000  -2.3395   0.0000   0.3819
  44.500   1.2937   0.60417   0.60188  -0.3095  0.0031  1.0000  -2.4341   0.0000   0.3818


